MODEL 1
REMARK VINA RESULT:      -5.7      0.000      0.000
REMARK  Name = human_CD1d_Tyloxapol_pred.rank_0
REMARK  175 active torsions:
REMARK  status: ('A' for Active; 'I' for Inactive)
REMARK    1  A    between atoms: C_1  and  C_3
REMARK    2  A    between atoms: C_3  and  O_4
REMARK    3  A    between atoms: O_4  and  C_5
REMARK    4  A    between atoms: C_5  and  C_7
REMARK    5  A    between atoms: O_6  and  C_7
REMARK    6  A    between atoms: O_6  and  C_9
REMARK    7  A    between atoms: O_8  and  C_11
REMARK    8  A    between atoms: O_8  and  C_13
REMARK    9  A    between atoms: C_9  and  C_11
REMARK   10  A    between atoms: O_10  and  C_15
REMARK   11  A    between atoms: O_10  and  C_17
REMARK   12  A    between atoms: O_12  and  C_19
REMARK   13  A    between atoms: O_12  and  C_21
REMARK   14  A    between atoms: C_13  and  C_15
REMARK   15  A    between atoms: O_14  and  C_23
REMARK   16  A    between atoms: O_14  and  C_25
REMARK   17  A    between atoms: O_16  and  C_27
REMARK   18  A    between atoms: O_16  and  C_29
REMARK   19  A    between atoms: C_17  and  C_19
REMARK   20  A    between atoms: O_18  and  C_37
REMARK   21  A    between atoms: O_18  and  C_39
REMARK   22  A    between atoms: O_20  and  C_41
REMARK   23  A    between atoms: O_20  and  C_43
REMARK   24  A    between atoms: C_21  and  C_23
REMARK   25  A    between atoms: O_22  and  C_49
REMARK   26  A    between atoms: O_22  and  C_51
REMARK   27  A    between atoms: O_24  and  C_53
REMARK   28  A    between atoms: O_24  and  C_55
REMARK   29  A    between atoms: C_25  and  C_27
REMARK   30  A    between atoms: O_26  and  C_57
REMARK   31  A    between atoms: O_26  and  C_59
REMARK   32  A    between atoms: O_28  and  C_61
REMARK   33  A    between atoms: O_28  and  C_63
REMARK   34  A    between atoms: C_29  and  C_31
REMARK   35  A    between atoms: O_30  and  C_65
REMARK   36  A    between atoms: O_30  and  C_67
REMARK   37  A    between atoms: C_31  and  C_33
REMARK   38  A    between atoms: O_32  and  C_69
REMARK   39  A    between atoms: O_32  and  C_71
REMARK   40  A    between atoms: C_33  and  C_35
REMARK   41  A    between atoms: O_34  and  C_73
REMARK   42  A    between atoms: O_34  and  C_75
REMARK   43  A    between atoms: C_35  and  C_37
REMARK   44  A    between atoms: O_36  and  C_77
REMARK   45  A    between atoms: O_36  and  C_79
REMARK   46  A    between atoms: O_38  and  C_81
REMARK   47  A    between atoms: O_38  and  C_83
REMARK   48  A    between atoms: C_39  and  C_41
REMARK   49  A    between atoms: O_40  and  C_85
REMARK   50  A    between atoms: O_40  and  C_87
REMARK   51  A    between atoms: C_43  and  C_45
REMARK   52  A    between atoms: C_43  and  C_163
REMARK   53  A    between atoms: O_44  and  C_116
REMARK   54  A    between atoms: O_44  and  C_117
REMARK   55  A    between atoms: C_45  and  C_47
REMARK   56  A    between atoms: C_45  and  C_150
REMARK   57  A    between atoms: O_46  and  C_118
REMARK   58  A    between atoms: O_46  and  C_119
REMARK   59  A    between atoms: O_48  and  C_120
REMARK   60  A    between atoms: O_48  and  C_121
REMARK   61  A    between atoms: O_50  and  C_122
REMARK   62  A    between atoms: O_50  and  C_123
REMARK   63  A    between atoms: C_51  and  C_53
REMARK   64  A    between atoms: O_52  and  C_124
REMARK   65  A    between atoms: O_52  and  C_125
REMARK   66  A    between atoms: O_54  and  C_126
REMARK   67  A    between atoms: O_54  and  C_127
REMARK   68  A    between atoms: C_55  and  C_57
REMARK   69  A    between atoms: O_56  and  C_128
REMARK   70  A    between atoms: O_56  and  C_129
REMARK   71  A    between atoms: O_58  and  C_130
REMARK   72  A    between atoms: O_58  and  C_131
REMARK   73  A    between atoms: C_59  and  C_61
REMARK   74  A    between atoms: O_60  and  C_132
REMARK   75  A    between atoms: O_60  and  C_133
REMARK   76  A    between atoms: O_62  and  C_134
REMARK   77  A    between atoms: O_62  and  C_135
REMARK   78  A    between atoms: C_63  and  C_65
REMARK   79  A    between atoms: O_66  and  C_180
REMARK   80  A    between atoms: O_66  and  C_181
REMARK   81  A    between atoms: C_67  and  C_69
REMARK   82  A    between atoms: O_68  and  C_182
REMARK   83  A    between atoms: O_68  and  C_183
REMARK   84  A    between atoms: O_70  and  C_184
REMARK   85  A    between atoms: O_70  and  C_185
REMARK   86  A    between atoms: C_71  and  C_73
REMARK   87  A    between atoms: O_72  and  C_186
REMARK   88  A    between atoms: O_72  and  C_187
REMARK   89  A    between atoms: O_74  and  C_188
REMARK   90  A    between atoms: O_74  and  C_189
REMARK   91  A    between atoms: C_75  and  C_77
REMARK   92  A    between atoms: O_76  and  C_190
REMARK   93  A    between atoms: O_76  and  C_191
REMARK   94  A    between atoms: O_78  and  C_192
REMARK   95  A    between atoms: O_78  and  C_193
REMARK   96  A    between atoms: C_79  and  C_81
REMARK   97  A    between atoms: O_80  and  C_194
REMARK   98  A    between atoms: O_80  and  C_195
REMARK   99  A    between atoms: O_82  and  C_196
REMARK  100  A    between atoms: O_82  and  C_197
REMARK  101  A    between atoms: C_83  and  C_85
REMARK  102  A    between atoms: O_84  and  C_198
REMARK  103  A    between atoms: O_84  and  C_199
REMARK  104  A    between atoms: C_87  and  C_89
REMARK  105  A    between atoms: O_88  and  C_215
REMARK  106  A    between atoms: O_88  and  C_216
REMARK  107  A    between atoms: O_90  and  C_217
REMARK  108  A    between atoms: O_90  and  C_218
REMARK  109  A    between atoms: O_92  and  C_219
REMARK  110  A    between atoms: O_92  and  C_220
REMARK  111  A    between atoms: O_94  and  C_221
REMARK  112  A    between atoms: O_94  and  C_222
REMARK  113  A    between atoms: O_96  and  C_223
REMARK  114  A    between atoms: O_96  and  C_224
REMARK  115  A    between atoms: C_97  and  C_99
REMARK  116  A    between atoms: O_98  and  C_225
REMARK  117  A    between atoms: O_98  and  C_226
REMARK  118  A    between atoms: C_99  and  C_105
REMARK  119  A    between atoms: O_100  and  C_227
REMARK  120  A    between atoms: O_100  and  C_228
REMARK  121  A    between atoms: O_102  and  C_229
REMARK  122  A    between atoms: O_102  and  C_230
REMARK  123  A    between atoms: O_104  and  C_231
REMARK  124  A    between atoms: O_104  and  C_232
REMARK  125  A    between atoms: C_105  and  C_107
REMARK  126  A    between atoms: O_106  and  C_233
REMARK  127  A    between atoms: O_106  and  C_234
REMARK  128  A    between atoms: C_117  and  C_118
REMARK  129  A    between atoms: C_119  and  C_120
REMARK  130  A    between atoms: C_121  and  C_122
REMARK  131  A    between atoms: C_123  and  C_124
REMARK  132  A    between atoms: C_125  and  C_126
REMARK  133  A    between atoms: C_127  and  C_128
REMARK  134  A    between atoms: C_129  and  C_130
REMARK  135  A    between atoms: C_131  and  C_132
REMARK  136  A    between atoms: C_133  and  C_134
REMARK  137  A    between atoms: C_135  and  C_136
REMARK  138  A    between atoms: C_138  and  C_139
REMARK  139  A    between atoms: C_139  and  C_142
REMARK  140  A    between atoms: C_142  and  C_145
REMARK  141  A    between atoms: C_150  and  C_151
REMARK  142  A    between atoms: C_151  and  C_152
REMARK  143  A    between atoms: C_152  and  C_155
REMARK  144  A    between atoms: C_155  and  C_158
REMARK  145  A    between atoms: C_163  and  C_164
REMARK  146  A    between atoms: C_166  and  C_167
REMARK  147  A    between atoms: C_167  and  C_168
REMARK  148  A    between atoms: C_168  and  C_171
REMARK  149  A    between atoms: C_178  and  C_179
REMARK  150  A    between atoms: C_179  and  C_180
REMARK  151  A    between atoms: C_179  and  C_214
REMARK  152  A    between atoms: C_181  and  C_182
REMARK  153  A    between atoms: C_183  and  C_184
REMARK  154  A    between atoms: C_185  and  C_186
REMARK  155  A    between atoms: C_187  and  C_188
REMARK  156  A    between atoms: C_189  and  C_190
REMARK  157  A    between atoms: C_191  and  C_192
REMARK  158  A    between atoms: C_193  and  C_194
REMARK  159  A    between atoms: C_195  and  C_196
REMARK  160  A    between atoms: C_197  and  C_198
REMARK  161  A    between atoms: C_199  and  C_200
REMARK  162  A    between atoms: C_203  and  C_204
REMARK  163  A    between atoms: C_203  and  C_214
REMARK  164  A    between atoms: C_204  and  C_207
REMARK  165  A    between atoms: C_207  and  C_210
REMARK  166  A    between atoms: C_216  and  C_217
REMARK  167  A    between atoms: C_218  and  C_219
REMARK  168  A    between atoms: C_220  and  C_221
REMARK  169  A    between atoms: C_222  and  C_223
REMARK  170  A    between atoms: C_224  and  C_225
REMARK  171  A    between atoms: C_226  and  C_227
REMARK  172  A    between atoms: C_228  and  C_229
REMARK  173  A    between atoms: C_230  and  C_231
REMARK  174  A    between atoms: C_232  and  C_233
REMARK  175  A    between atoms: C_234  and  C_235
REMARK                            x       y       z     vdW  Elec       q    Type
REMARK                         _______ _______ _______ _____ _____    ______ ____
ROOT
ATOM      1  C   UNL     1     -13.029  11.581  27.779  0.00  0.00    +0.000 C 
ENDROOT
BRANCH   1   2
ATOM      2  C   UNL     1     -12.792  10.376  26.257  0.00  0.00    +0.000 C 
BRANCH   2   3
ATOM      3  C   UNL     1     -12.708   8.834  26.502  0.00  0.00    +0.000 C 
ATOM      4  C   UNL     1     -11.907   8.471  27.904  0.00  0.00    +0.000 C 
ATOM      5  C   UNL     1     -10.436   8.166  27.658  0.00  0.00    +0.000 C 
ATOM      6  C   UNL     1     -10.367   6.683  26.738  0.00  0.00    +0.000 C 
ATOM      7  C   UNL     1     -10.606   6.702  25.284  0.00  0.00    +0.000 C 
ATOM      8  C   UNL     1     -12.045   7.669  24.957  0.00  0.00    +0.000 C 
BRANCH   5   9
ATOM      9  C   UNL     1      -9.593   8.094  29.047  0.00  0.00    +0.000 C 
ATOM     10  C   UNL     1     -10.360   7.858  29.962  0.00  0.00    +0.000 C 
ATOM     11  C   UNL     1      -8.391   7.088  28.776  0.00  0.00    +0.000 C 
BRANCH   9  12
ATOM     12  C   UNL     1      -8.792   9.491  29.380  0.00  0.00    +0.000 C 
ATOM     13  C   UNL     1      -8.815   9.794  30.900  0.00  0.00    +0.000 C 
ATOM     14  C   UNL     1      -9.713  10.844  28.901  0.00  0.00    +0.000 C 
BRANCH  12  15
ATOM     15  C   UNL     1      -7.496   9.812  28.706  0.00  0.00    +0.000 C 
ATOM     16  C   UNL     1      -6.562   9.449  29.852  0.00  0.00    +0.000 C 
ATOM     17  C   UNL     1      -7.229  11.230  28.395  0.00  0.00    +0.000 C 
ATOM     18  C   UNL     1      -7.265   9.026  27.486  0.00  0.00    +0.000 C 
ENDBRANCH  12  15
ENDBRANCH   9  12
ENDBRANCH   5   9
BRANCH   7  19
ATOM     19  C   UNL     1     -10.149   5.414  24.475  0.00  0.00    +0.000 C 
BRANCH  19  20
ATOM     20  C   UNL     1     -10.374   5.536  22.925  0.00  0.00    +0.000 C 
ATOM     21  C   UNL     1      -9.528   6.705  22.279  0.00  0.00    +0.000 C 
BRANCH  20  22
ATOM     22  O   UNL     1      -9.838   4.328  22.269  0.00  0.00    +0.000 OA
BRANCH  22  23
ATOM     23  C   UNL     1      -9.712   4.408  20.876  0.00  0.00    +0.000 C 
BRANCH  23  24
ATOM     24  C   UNL     1     -11.008   3.985  20.201  0.00  0.00    +0.000 C 
BRANCH  24  25
ATOM     25  O   UNL     1     -11.019   4.467  18.897  0.00  0.00    +0.000 OA
BRANCH  25  26
ATOM     26  C   UNL     1     -11.713   3.617  17.997  0.00  0.00    +0.000 C 
BRANCH  26  27
ATOM     27  C   UNL     1     -11.511   4.047  16.608  0.00  0.00    +0.000 C 
BRANCH  27  28
ATOM     28  O   UNL     1     -10.185   3.881  16.267  0.00  0.00    +0.000 OA
BRANCH  28  29
ATOM     29  C   UNL     1      -9.965   3.485  14.929  0.00  0.00    +0.000 C 
BRANCH  29  30
ATOM     30  C   UNL     1     -11.138   2.656  14.462  0.00  0.00    +0.000 C 
BRANCH  30  31
ATOM     31  O   UNL     1     -11.268   2.835  13.085  0.00  0.00    +0.000 OA
BRANCH  31  32
ATOM     32  C   UNL     1     -12.114   1.823  12.508  0.00  0.00    +0.000 C 
BRANCH  32  33
ATOM     33  C   UNL     1     -13.572   2.276  12.683  0.00  0.00    +0.000 C 
BRANCH  33  34
ATOM     34  O   UNL     1     -14.166   2.334  11.426  0.00  0.00    +0.000 OA
BRANCH  34  35
ATOM     35  C   UNL     1     -15.436   3.016  11.405  0.00  0.00    +0.000 C 
BRANCH  35  36
ATOM     36  C   UNL     1     -15.643   3.864  12.624  0.00  0.00    +0.000 C 
BRANCH  36  37
ATOM     37  O   UNL     1     -17.025   4.327  12.584  0.00  0.00    +0.000 OA
BRANCH  37  38
ATOM     38  C   UNL     1     -17.837   3.532  13.411  0.00  0.00    +0.000 C 
BRANCH  38  39
ATOM     39  C   UNL     1     -19.255   3.938  13.420  0.00  0.00    +0.000 C 
BRANCH  39  40
ATOM     40  O   UNL     1     -20.087   2.690  13.548  0.00  0.00    +0.000 OA
BRANCH  40  41
ATOM     41  C   UNL     1     -21.459   2.977  13.688  0.00  0.00    +0.000 C 
BRANCH  41  42
ATOM     42  C   UNL     1     -22.098   2.106  14.711  0.00  0.00    +0.000 C 
BRANCH  42  43
ATOM     43  O   UNL     1     -23.097   1.344  14.158  0.00  0.00    +0.000 OA
BRANCH  43  44
ATOM     44  C   UNL     1     -23.486   1.682  12.857  0.00  0.00    +0.000 C 
BRANCH  44  45
ATOM     45  C   UNL     1     -24.960   1.599  12.674  0.00  0.00    +0.000 C 
BRANCH  45  46
ATOM     46  O   UNL     1     -25.240   1.881  11.300  0.00  0.00    +0.000 OA
BRANCH  46  47
ATOM     47  C   UNL     1     -24.777   0.808  10.497  0.00  0.00    +0.000 C 
BRANCH  47  48
ATOM     48  C   UNL     1     -25.667  -0.464  10.817  0.00  0.00    +0.000 C 
BRANCH  48  49
ATOM     49  O   UNL     1     -24.868  -1.595  10.823  0.00  0.00    +0.000 OA
BRANCH  49  50
ATOM     50  C   UNL     1     -24.443  -2.031  12.070  0.00  0.00    +0.000 C 
BRANCH  50  52
ATOM     51  O   UNL     1     -25.734  -3.968  11.549  0.00  0.00    +0.000 OA
ATOM     52  C   UNL     1     -24.468  -3.572  12.115  0.00  0.00    +0.000 C 
ENDBRANCH  50  52
ENDBRANCH  49  50
ENDBRANCH  48  49
ENDBRANCH  47  48
ENDBRANCH  46  47
ENDBRANCH  45  46
ENDBRANCH  44  45
ENDBRANCH  43  44
ENDBRANCH  42  43
ENDBRANCH  41  42
ENDBRANCH  40  41
ENDBRANCH  39  40
ENDBRANCH  38  39
ENDBRANCH  37  38
ENDBRANCH  36  37
ENDBRANCH  35  36
ENDBRANCH  34  35
ENDBRANCH  33  34
ENDBRANCH  32  33
ENDBRANCH  31  32
ENDBRANCH  30  31
ENDBRANCH  29  30
ENDBRANCH  28  29
ENDBRANCH  27  28
ENDBRANCH  26  27
ENDBRANCH  25  26
ENDBRANCH  24  25
ENDBRANCH  23  24
ENDBRANCH  22  23
ENDBRANCH  20  22
ENDBRANCH  19  20
BRANCH  19  53
ATOM     53  C   UNL     1      -8.609   4.949  24.630  0.00  0.00    +0.000 C 
BRANCH  53  55
ATOM     54  C   UNL     1      -7.273   6.910  24.646  0.00  0.00    +0.000 C 
ATOM     55  C   UNL     1      -7.461   5.500  24.214  0.00  0.00    +0.000 C 
BRANCH  55  56
ATOM     56  C   UNL     1      -6.401   4.800  23.366  0.00  0.00    +0.000 C 
ATOM     57  C   UNL     1      -6.697   3.357  23.592  0.00  0.00    +0.000 C 
ATOM     58  C   UNL     1      -6.656   5.095  21.915  0.00  0.00    +0.000 C 
BRANCH  56  59
ATOM     59  C   UNL     1      -4.959   5.209  23.797  0.00  0.00    +0.000 C 
ATOM     60  C   UNL     1      -4.574   4.630  25.102  0.00  0.00    +0.000 C 
ATOM     61  C   UNL     1      -4.927   6.753  23.890  0.00  0.00    +0.000 C 
BRANCH  59  62
ATOM     62  C   UNL     1      -3.826   4.810  22.744  0.00  0.00    +0.000 C 
ATOM     63  C   UNL     1      -3.728   3.333  22.603  0.00  0.00    +0.000 C 
ATOM     64  C   UNL     1      -2.480   5.263  23.253  0.00  0.00    +0.000 C 
ATOM     65  C   UNL     1      -3.974   5.443  21.446  0.00  0.00    +0.000 C 
ENDBRANCH  59  62
ENDBRANCH  56  59
ENDBRANCH  55  56
ENDBRANCH  53  55
ENDBRANCH  19  53
ENDBRANCH   7  19
BRANCH   8  66
ATOM     66  O   UNL     1     -12.756   7.721  23.793  0.00  0.00    +0.000 OA
BRANCH  66  67
ATOM     67  C   UNL     1     -12.446   8.792  22.931  0.00  0.00    +0.000 C 
BRANCH  67  68
ATOM     68  C   UNL     1     -12.340   8.476  21.423  0.00  0.00    +0.000 C 
BRANCH  68  69
ATOM     69  O   UNL     1     -13.100   7.333  21.147  0.00  0.00    +0.000 OA
BRANCH  69  70
ATOM     70  C   UNL     1     -13.961   7.496  19.973  0.00  0.00    +0.000 C 
BRANCH  70  71
ATOM     71  C   UNL     1     -14.022   6.214  19.161  0.00  0.00    +0.000 C 
BRANCH  71  72
ATOM     72  O   UNL     1     -14.392   5.048  20.097  0.00  0.00    +0.000 OA
BRANCH  72  73
ATOM     73  C   UNL     1     -15.109   4.042  19.394  0.00  0.00    +0.000 C 
BRANCH  73  74
ATOM     74  C   UNL     1     -15.464   4.570  17.998  0.00  0.00    +0.000 C 
BRANCH  74  75
ATOM     75  O   UNL     1     -15.795   3.528  17.136  0.00  0.00    +0.000 OA
BRANCH  75  76
ATOM     76  C   UNL     1     -15.180   2.282  17.492  0.00  0.00    +0.000 C 
BRANCH  76  77
ATOM     77  C   UNL     1     -14.302   1.755  16.388  0.00  0.00    +0.000 C 
BRANCH  77  78
ATOM     78  O   UNL     1     -13.432   0.830  17.025  0.00  0.00    +0.000 OA
BRANCH  78  79
ATOM     79  C   UNL     1     -13.537  -0.532  16.489  0.00  0.00    +0.000 C 
BRANCH  79  80
ATOM     80  C   UNL     1     -13.004  -0.487  15.109  0.00  0.00    +0.000 C 
BRANCH  80  81
ATOM     81  O   UNL     1     -13.931  -1.039  14.136  0.00  0.00    +0.000 OA
BRANCH  81  82
ATOM     82  C   UNL     1     -13.314  -1.767  13.123  0.00  0.00    +0.000 C 
BRANCH  82  83
ATOM     83  C   UNL     1     -13.874  -1.357  11.747  0.00  0.00    +0.000 C 
BRANCH  83  84
ATOM     84  O   UNL     1     -15.228  -0.990  11.856  0.00  0.00    +0.000 OA
BRANCH  84  85
ATOM     85  C   UNL     1     -15.893  -0.710  10.728  0.00  0.00    +0.000 C 
BRANCH  85  86
ATOM     86  C   UNL     1     -15.021  -1.017   9.493  0.00  0.00    +0.000 C 
BRANCH  86  87
ATOM     87  O   UNL     1     -14.870   0.086   8.637  0.00  0.00    +0.000 OA
BRANCH  87  88
ATOM     88  C   UNL     1     -13.589   0.248   8.136  0.00  0.00    +0.000 C 
BRANCH  88  89
ATOM     89  C   UNL     1     -13.591   1.108   6.883  0.00  0.00    +0.000 C 
BRANCH  89  90
ATOM     90  O   UNL     1     -14.596   2.110   6.998  0.00  0.00    +0.000 OA
BRANCH  90  91
ATOM     91  C   UNL     1     -14.027   3.267   7.645  0.00  0.00    +0.000 C 
BRANCH  91  92
ATOM     92  C   UNL     1     -13.661   4.258   6.569  0.00  0.00    +0.000 C 
BRANCH  92  93
ATOM     93  O   UNL     1     -12.240   4.360   6.516  0.00  0.00    +0.000 OA
BRANCH  93  94
ATOM     94  C   UNL     1     -11.764   5.590   6.908  0.00  0.00    +0.000 C 
BRANCH  94  96
ATOM     95  O   UNL     1      -9.510   5.551   7.742  0.00  0.00    +0.000 OA
ATOM     96  C   UNL     1     -10.273   5.724   6.577  0.00  0.00    +0.000 C 
ENDBRANCH  94  96
ENDBRANCH  93  94
ENDBRANCH  92  93
ENDBRANCH  91  92
ENDBRANCH  90  91
ENDBRANCH  89  90
ENDBRANCH  88  89
ENDBRANCH  87  88
ENDBRANCH  86  87
ENDBRANCH  85  86
ENDBRANCH  84  85
ENDBRANCH  83  84
ENDBRANCH  82  83
ENDBRANCH  81  82
ENDBRANCH  80  81
ENDBRANCH  79  80
ENDBRANCH  78  79
ENDBRANCH  77  78
ENDBRANCH  76  77
ENDBRANCH  75  76
ENDBRANCH  74  75
ENDBRANCH  73  74
ENDBRANCH  72  73
ENDBRANCH  71  72
ENDBRANCH  70  71
ENDBRANCH  69  70
ENDBRANCH  68  69
ENDBRANCH  67  68
ENDBRANCH  66  67
ENDBRANCH   8  66
ENDBRANCH   2   3
ENDBRANCH   1   2
BRANCH   1  97
ATOM     97  C   UNL     1     -14.194  11.602  28.752  0.00  0.00    +0.000 C 
BRANCH  97  98
ATOM     98  C   UNL     1     -15.504  10.866  28.156  0.00  0.00    +0.000 C 
ATOM     99  C   UNL     1     -16.005  11.526  26.836  0.00  0.00    +0.000 C 
ATOM    100  C   UNL     1     -17.296  10.884  26.160  0.00  0.00    +0.000 C 
ATOM    101  C   UNL     1     -18.362  10.772  25.161  0.00  0.00    +0.000 C 
ATOM    102  C   UNL     1     -19.797  10.379  25.420  0.00  0.00    +0.000 C 
ATOM    103  C   UNL     1     -20.781  10.354  24.359  0.00  0.00    +0.000 C 
ATOM    104  C   UNL     1     -20.335  10.791  23.063  0.00  0.00    +0.000 C 
ATOM    105  C   UNL     1     -19.012  11.083  22.752  0.00  0.00    +0.000 C 
ATOM    106  C   UNL     1     -18.160  11.017  23.813  0.00  0.00    +0.000 C 
ATOM    107  C   UNL     1     -17.714  10.460  26.753  0.00  0.00    +0.000 C 
ATOM    108  C   UNL     1     -17.482   9.660  27.818  0.00  0.00    +0.000 C 
ATOM    109  C   UNL     1     -16.082   9.593  28.445  0.00  0.00    +0.000 C 
BRANCH 103 110
ATOM    110  C   UNL     1     -22.189   9.846  24.657  0.00  0.00    +0.000 C 
ATOM    111  C   UNL     1     -22.767   9.500  23.254  0.00  0.00    +0.000 C 
ATOM    112  C   UNL     1     -22.106   8.569  25.357  0.00  0.00    +0.000 C 
BRANCH 110 113
ATOM    113  C   UNL     1     -23.226  10.732  25.384  0.00  0.00    +0.000 C 
ATOM    114  C   UNL     1     -24.573  10.208  24.998  0.00  0.00    +0.000 C 
ATOM    115  C   UNL     1     -23.011  10.612  26.896  0.00  0.00    +0.000 C 
BRANCH 113 116
ATOM    116  C   UNL     1     -23.122  12.290  25.067  0.00  0.00    +0.000 C 
ATOM    117  C   UNL     1     -21.872  12.889  25.681  0.00  0.00    +0.000 C 
ATOM    118  C   UNL     1     -24.234  13.032  25.718  0.00  0.00    +0.000 C 
ATOM    119  C   UNL     1     -23.177  12.544  23.586  0.00  0.00    +0.000 C 
ENDBRANCH 113 116
ENDBRANCH 110 113
ENDBRANCH 103 110
BRANCH 108 120
ATOM    120  C   UNL     1     -18.712   9.303  28.731  0.00  0.00    +0.000 C 
ATOM    121  C   UNL     1     -19.593   8.336  27.923  0.00  0.00    +0.000 C 
ATOM    122  C   UNL     1     -19.519  10.542  28.874  0.00  0.00    +0.000 C 
BRANCH 120 123
ATOM    123  C   UNL     1     -18.423   8.487  30.111  0.00  0.00    +0.000 C 
ATOM    124  C   UNL     1     -19.234   7.278  30.259  0.00  0.00    +0.000 C 
ATOM    125  C   UNL     1     -16.992   8.010  30.157  0.00  0.00    +0.000 C 
BRANCH 123 126
ATOM    126  C   UNL     1     -18.728   9.295  31.420  0.00  0.00    +0.000 C 
ATOM    127  C   UNL     1     -18.444   8.415  32.586  0.00  0.00    +0.000 C 
ATOM    128  C   UNL     1     -20.191   9.633  31.515  0.00  0.00    +0.000 C 
ATOM    129  C   UNL     1     -17.990  10.579  31.428  0.00  0.00    +0.000 C 
ENDBRANCH 123 126
ENDBRANCH 120 123
ENDBRANCH 108 120
BRANCH 106 130
ATOM    130  O   UNL     1     -16.810  11.076  23.561  0.00  0.00    +0.000 OA
BRANCH 130 131
ATOM    131  C   UNL     1     -16.110   9.880  23.141  0.00  0.00    +0.000 C 
BRANCH 131 132
ATOM    132  C   UNL     1     -15.943   9.964  21.635  0.00  0.00    +0.000 C 
BRANCH 132 133
ATOM    133  O   UNL     1     -16.822   9.097  21.007  0.00  0.00    +0.000 OA
BRANCH 133 134
ATOM    134  C   UNL     1     -17.091   9.450  19.660  0.00  0.00    +0.000 C 
BRANCH 134 135
ATOM    135  C   UNL     1     -18.563   9.466  19.430  0.00  0.00    +0.000 C 
BRANCH 135 136
ATOM    136  O   UNL     1     -18.681   9.551  18.293  0.00  0.00    +0.000 OA
BRANCH 136 137
ATOM    137  C   UNL     1     -19.947   9.960  17.908  0.00  0.00    +0.000 C 
BRANCH 137 138
ATOM    138  C   UNL     1     -21.028   9.767  19.025  0.00  0.00    +0.000 C 
BRANCH 138 139
ATOM    139  O   UNL     1     -22.202   9.496  18.410  0.00  0.00    +0.000 OA
BRANCH 139 140
ATOM    140  C   UNL     1     -22.453   8.078  18.289  0.00  0.00    +0.000 C 
BRANCH 140 141
ATOM    141  C   UNL     1     -23.715   7.739  19.018  0.00  0.00    +0.000 C 
BRANCH 141 142
ATOM    142  O   UNL     1     -23.912   6.343  19.008  0.00  0.00    +0.000 OA
BRANCH 142 143
ATOM    143  C   UNL     1     -22.905   5.635  18.289  0.00  0.00    +0.000 C 
BRANCH 143 144
ATOM    144  C   UNL     1     -23.397   4.197  17.977  0.00  0.00    +0.000 C 
BRANCH 144 145
ATOM    145  O   UNL     1     -22.413   3.212  18.333  0.00  0.00    +0.000 OA
BRANCH 145 146
ATOM    146  C   UNL     1     -22.269   2.848  19.714  0.00  0.00    +0.000 C 
BRANCH 146 147
ATOM    147  C   UNL     1     -23.599   2.646  20.397  0.00  0.00    +0.000 C 
BRANCH 147 148
ATOM    148  O   UNL     1     -23.350   2.478  21.805  0.00  0.00    +0.000 OA
BRANCH 148 149
ATOM    149  C   UNL     1     -22.538   1.367  22.148  0.00  0.00    +0.000 C 
BRANCH 149 150
ATOM    150  C   UNL     1     -23.246   0.515  23.181  0.00  0.00    +0.000 C 
BRANCH 150 151
ATOM    151  O   UNL     1     -23.614  -0.727  22.566  0.00  0.00    +0.000 OA
BRANCH 151 152
ATOM    152  C   UNL     1     -23.141  -1.878  23.174  0.00  0.00    +0.000 C 
BRANCH 152 153
ATOM    153  C   UNL     1     -23.034  -3.027  22.188  0.00  0.00    +0.000 C 
BRANCH 153 154
ATOM    154  O   UNL     1     -23.136  -4.263  22.891  0.00  0.00    +0.000 OA
BRANCH 154 155
ATOM    155  C   UNL     1     -23.768  -5.283  22.172  0.00  0.00    +0.000 C 
BRANCH 155 156
ATOM    156  C   UNL     1     -23.765  -6.598  22.991  0.00  0.00    +0.000 C 
BRANCH 156 157
ATOM    157  O   UNL     1     -24.422  -6.326  24.233  0.00  0.00    +0.000 OA
BRANCH 157 158
ATOM    158  C   UNL     1     -25.778  -6.686  24.224  0.00  0.00    +0.000 C 
BRANCH 158 160
ATOM    159  O   UNL     1     -26.031  -9.128  24.527  0.00  0.00    +0.000 OA
ATOM    160  C   UNL     1     -25.823  -7.978  23.534  0.00  0.00    +0.000 C 
ENDBRANCH 158 160
ENDBRANCH 157 158
ENDBRANCH 156 157
ENDBRANCH 155 156
ENDBRANCH 154 155
ENDBRANCH 153 154
ENDBRANCH 152 153
ENDBRANCH 151 152
ENDBRANCH 150 151
ENDBRANCH 149 150
ENDBRANCH 148 149
ENDBRANCH 147 148
ENDBRANCH 146 147
ENDBRANCH 145 146
ENDBRANCH 144 145
ENDBRANCH 143 144
ENDBRANCH 142 143
ENDBRANCH 141 142
ENDBRANCH 140 141
ENDBRANCH 139 140
ENDBRANCH 138 139
ENDBRANCH 137 138
ENDBRANCH 136 137
ENDBRANCH 135 136
ENDBRANCH 134 135
ENDBRANCH 133 134
ENDBRANCH 132 133
ENDBRANCH 131 132
ENDBRANCH 130 131
ENDBRANCH 106 130
BRANCH  99 161
ATOM    161  O   UNL     1     -15.943  12.889  26.686  0.00  0.00    +0.000 OA
BRANCH 161 162
ATOM    162  C   UNL     1     -16.628  13.735  27.617  0.00  0.00    +0.000 C 
BRANCH 162 163
ATOM    163  C   UNL     1     -16.167  15.184  27.652  0.00  0.00    +0.000 C 
BRANCH 163 164
ATOM    164  O   UNL     1     -15.560  15.533  26.445  0.00  0.00    +0.000 OA
BRANCH 164 165
ATOM    165  C   UNL     1     -16.403  16.138  25.501  0.00  0.00    +0.000 C 
BRANCH 165 166
ATOM    166  C   UNL     1     -16.216  15.582  24.087  0.00  0.00    +0.000 C 
BRANCH 166 167
ATOM    167  O   UNL     1     -17.082  14.432  23.914  0.00  0.00    +0.000 OA
BRANCH 167 168
ATOM    168  C   UNL     1     -18.365  14.684  24.449  0.00  0.00    +0.000 C 
BRANCH 168 169
ATOM    169  C   UNL     1     -19.405  14.779  23.342  0.00  0.00    +0.000 C 
BRANCH 169 170
ATOM    170  O   UNL     1     -18.845  14.405  22.121  0.00  0.00    +0.000 OA
BRANCH 170 171
ATOM    171  C   UNL     1     -19.197  15.261  21.052  0.00  0.00    +0.000 C 
BRANCH 171 172
ATOM    172  C   UNL     1     -18.148  16.402  20.862  0.00  0.00    +0.000 C 
BRANCH 172 173
ATOM    173  O   UNL     1     -18.526  17.135  19.709  0.00  0.00    +0.000 OA
BRANCH 173 174
ATOM    174  C   UNL     1     -17.718  16.719  18.564  0.00  0.00    +0.000 C 
BRANCH 174 175
ATOM    175  C   UNL     1     -16.238  16.797  18.932  0.00  0.00    +0.000 C 
BRANCH 175 176
ATOM    176  O   UNL     1     -15.499  16.362  17.837  0.00  0.00    +0.000 OA
BRANCH 176 177
ATOM    177  C   UNL     1     -16.127  16.672  16.603  0.00  0.00    +0.000 C 
BRANCH 177 178
ATOM    178  C   UNL     1     -15.124  17.479  15.789  0.00  0.00    +0.000 C 
BRANCH 178 179
ATOM    179  O   UNL     1     -15.081  16.985  14.462  0.00  0.00    +0.000 OA
BRANCH 179 180
ATOM    180  C   UNL     1     -14.006  17.564  13.676  0.00  0.00    +0.000 C 
BRANCH 180 181
ATOM    181  C   UNL     1     -13.461  16.523  12.699  0.00  0.00    +0.000 C 
BRANCH 181 182
ATOM    182  O   UNL     1     -12.162  16.142  13.062  0.00  0.00    +0.000 OA
BRANCH 182 183
ATOM    183  C   UNL     1     -11.594  17.009  14.105  0.00  0.00    +0.000 C 
BRANCH 183 184
ATOM    184  C   UNL     1     -10.277  17.675  13.704  0.00  0.00    +0.000 C 
BRANCH 184 185
ATOM    185  O   UNL     1      -9.307  16.679  13.725  0.00  0.00    +0.000 OA
BRANCH 185 186
ATOM    186  C   UNL     1      -8.054  17.137  14.263  0.00  0.00    +0.000 C 
BRANCH 186 187
ATOM    187  C   UNL     1      -7.593  16.231  15.383  0.00  0.00    +0.000 C 
BRANCH 187 188
ATOM    188  O   UNL     1      -7.292  17.131  16.530  0.00  0.00    +0.000 OA
BRANCH 188 189
ATOM    189  C   UNL     1      -8.520  17.629  17.101  0.00  0.00    +0.000 C 
BRANCH 189 191
ATOM    190  O   UNL     1      -7.824  18.022  19.330  0.00  0.00    +0.000 OA
ATOM    191  C   UNL     1      -8.139  18.661  18.138  0.00  0.00    +0.000 C 
ENDBRANCH 189 191
ENDBRANCH 188 189
ENDBRANCH 187 188
ENDBRANCH 186 187
ENDBRANCH 185 186
ENDBRANCH 184 185
ENDBRANCH 183 184
ENDBRANCH 182 183
ENDBRANCH 181 182
ENDBRANCH 180 181
ENDBRANCH 179 180
ENDBRANCH 178 179
ENDBRANCH 177 178
ENDBRANCH 176 177
ENDBRANCH 175 176
ENDBRANCH 174 175
ENDBRANCH 173 174
ENDBRANCH 172 173
ENDBRANCH 171 172
ENDBRANCH 170 171
ENDBRANCH 169 170
ENDBRANCH 168 169
ENDBRANCH 167 168
ENDBRANCH 166 167
ENDBRANCH 165 166
ENDBRANCH 164 165
ENDBRANCH 163 164
ENDBRANCH 162 163
ENDBRANCH 161 162
ENDBRANCH  99 161
ENDBRANCH  97  98
BRANCH  97 192
ATOM    192  C   UNL     1     -13.404  11.467  29.934  0.00  0.00    +0.000 C 
BRANCH 192 193
ATOM    193  C   UNL     1     -13.848  11.627  31.297  0.00  0.00    +0.000 C 
ATOM    194  C   UNL     1     -14.973  12.483  31.640  0.00  0.00    +0.000 C 
BRANCH 193 195
ATOM    195  C   UNL     1     -13.173  10.951  32.421  0.00  0.00    +0.000 C 
ATOM    196  C   UNL     1     -11.662  11.101  32.182  0.00  0.00    +0.000 C 
ATOM    197  C   UNL     1     -13.475  11.646  33.756  0.00  0.00    +0.000 C 
BRANCH 195 198
ATOM    198  C   UNL     1     -13.603   9.395  32.484  0.00  0.00    +0.000 C 
ATOM    199  C   UNL     1     -13.555   8.764  31.162  0.00  0.00    +0.000 C 
ATOM    200  C   UNL     1     -14.975   9.256  33.057  0.00  0.00    +0.000 C 
BRANCH 198 201
ATOM    201  C   UNL     1     -12.764   8.424  33.397  0.00  0.00    +0.000 C 
ATOM    202  C   UNL     1     -11.311   8.785  33.463  0.00  0.00    +0.000 C 
ATOM    203  C   UNL     1     -12.792   7.002  32.903  0.00  0.00    +0.000 C 
ATOM    204  C   UNL     1     -13.222   8.514  34.774  0.00  0.00    +0.000 C 
ENDBRANCH 198 201
ENDBRANCH 195 198
ENDBRANCH 193 195
ENDBRANCH 192 193
ENDBRANCH  97 192
ENDBRANCH   1  97
BRANCH   1 205
ATOM    205  O   UNL     1     -12.974  12.762  27.006  0.00  0.00    +0.000 OA
BRANCH 205 206
ATOM    206  C   UNL     1     -12.403  13.855  27.688  0.00  0.00    +0.000 C 
BRANCH 206 207
ATOM    207  C   UNL     1     -12.060  14.979  26.752  0.00  0.00    +0.000 C 
BRANCH 207 208
ATOM    208  O   UNL     1     -10.653  15.024  26.488  0.00  0.00    +0.000 OA
BRANCH 208 209
ATOM    209  C   UNL     1      -9.852  14.467  27.553  0.00  0.00    +0.000 C 
BRANCH 209 210
ATOM    210  C   UNL     1      -8.383  14.615  27.246  0.00  0.00    +0.000 C 
BRANCH 210 211
ATOM    211  C   UNL     1      -7.660  15.561  28.206  0.00  0.00    +0.000 C 
BRANCH 211 212
ATOM    212  C   UNL     1      -6.766  16.525  27.458  0.00  0.00    +0.000 C 
BRANCH 212 213
ATOM    213  C   UNL     1      -6.401  17.691  28.316  0.00  0.00    +0.000 C 
BRANCH 213 214
ATOM    214  O   UNL     1      -5.657  18.599  27.644  0.00  0.00    +0.000 OA
BRANCH 214 215
ATOM    215  C   UNL     1      -4.553  17.980  26.926  0.00  0.00    +0.000 C 
BRANCH 215 216
ATOM    216  C   UNL     1      -4.319  18.610  25.569  0.00  0.00    +0.000 C 
BRANCH 216 217
ATOM    217  O   UNL     1      -5.122  18.036  24.638  0.00  0.00    +0.000 OA
BRANCH 217 218
ATOM    218  C   UNL     1      -5.929  18.575  23.504  0.00  0.00    +0.000 C 
BRANCH 218 219
ATOM    219  C   UNL     1      -7.057  19.431  24.171  0.00  0.00    +0.000 C 
BRANCH 219 220
ATOM    220  O   UNL     1      -7.819  18.657  25.020  0.00  0.00    +0.000 OA
BRANCH 220 221
ATOM    221  C   UNL     1      -8.711  19.362  25.901  0.00  0.00    +0.000 C 
BRANCH 221 222
ATOM    222  C   UNL     1      -9.849  18.429  26.307  0.00  0.00    +0.000 C 
BRANCH 222 223
ATOM    223  O   UNL     1      -9.877  18.220  27.696  0.00  0.00    +0.000 OA
BRANCH 223 224
ATOM    224  C   UNL     1     -11.177  18.205  28.258  0.00  0.00    +0.000 C 
BRANCH 224 225
ATOM    225  C   UNL     1     -11.104  17.403  29.561  0.00  0.00    +0.000 C 
BRANCH 225 226
ATOM    226  O   UNL     1     -10.330  18.092  30.539  0.00  0.00    +0.000 OA
BRANCH 226 227
ATOM    227  C   UNL     1      -9.264  17.316  31.055  0.00  0.00    +0.000 C 
BRANCH 227 228
ATOM    228  C   UNL     1      -9.089  17.654  32.514  0.00  0.00    +0.000 C 
BRANCH 228 229
ATOM    229  O   UNL     1      -7.899  17.138  33.044  0.00  0.00    +0.000 OA
BRANCH 229 230
ATOM    230  C   UNL     1      -8.099  16.441  34.245  0.00  0.00    +0.000 C 
BRANCH 230 231
ATOM    231  C   UNL     1      -8.431  15.005  33.971  0.00  0.00    +0.000 C 
BRANCH 231 232
ATOM    232  O   UNL     1      -9.753  14.753  34.379  0.00  0.00    +0.000 OA
BRANCH 232 233
ATOM    233  C   UNL     1     -10.031  13.383  34.557  0.00  0.00    +0.000 C 
BRANCH 233 234
ATOM    234  C   UNL     1      -8.786  12.649  35.006  0.00  0.00    +0.000 C 
ATOM    235  O   UNL     1      -8.693  11.430  34.303  0.00  0.00    +0.000 OA
ENDBRANCH 233 234
ENDBRANCH 232 233
ENDBRANCH 231 232
ENDBRANCH 230 231
ENDBRANCH 229 230
ENDBRANCH 228 229
ENDBRANCH 227 228
ENDBRANCH 226 227
ENDBRANCH 225 226
ENDBRANCH 224 225
ENDBRANCH 223 224
ENDBRANCH 222 223
ENDBRANCH 221 222
ENDBRANCH 220 221
ENDBRANCH 219 220
ENDBRANCH 218 219
ENDBRANCH 217 218
ENDBRANCH 216 217
ENDBRANCH 215 216
ENDBRANCH 214 215
ENDBRANCH 213 214
ENDBRANCH 212 213
ENDBRANCH 211 212
ENDBRANCH 210 211
ENDBRANCH 209 210
ENDBRANCH 208 209
ENDBRANCH 207 208
ENDBRANCH 206 207
ENDBRANCH 205 206
ENDBRANCH   1 205
TORSDOF 175
BEGIN_RES LEU A  10
REMARK  2 active torsions:
REMARK  status: ('A' for Active; 'I' for Inactive)
REMARK    1  A    between atoms: CA   and  CB  
REMARK    2  A    between atoms: CB   and  CG  
ROOT
ATOM      1  CA  LEU A  10     -10.775  -4.871   5.898  1.00 25.14     0.177 C 
ENDROOT
BRANCH   1   2
ATOM      2  CB  LEU A  10     -12.191  -4.387   6.226  1.00 17.87     0.038 C 
BRANCH   2   3
ATOM      3  CG  LEU A  10     -12.660  -3.192   5.393  1.00 24.95    -0.020 C 
ATOM      4  CD2 LEU A  10     -11.701  -2.065   5.577  1.00 26.38     0.009 C 
ATOM      5  CD1 LEU A  10     -14.064  -2.770   5.791  1.00 28.12     0.009 C 
ENDBRANCH   2   3
ENDBRANCH   1   2
END_RES LEU A  10
BEGIN_RES CYS A  12
REMARK  2 active torsions:
REMARK  status: ('A' for Active; 'I' for Inactive)
REMARK    3  A    between atoms: CA   and  CB  
REMARK    4  A    between atoms: CB   and  SG  
ROOT
ATOM      6  CA  CYS A  12      -8.555   0.470   8.750  1.00 23.16     0.185 C 
ENDROOT
BRANCH   6   7
ATOM      7  CB  CYS A  12      -9.828   0.763   9.555  1.00 20.43     0.105 C 
BRANCH   7   8
ATOM      8  SG  CYS A  12     -10.653   2.345   9.200  1.00 24.64    -0.180 SA
ATOM      9  H04 CYS A  12     -11.006   2.933  10.350  1.00 24.64     0.101 HD
ENDBRANCH   7   8
ENDBRANCH   6   7
END_RES CYS A  12
BEGIN_RES GLN A  14
REMARK  3 active torsions:
REMARK  status: ('A' for Active; 'I' for Inactive)
REMARK    5  A    between atoms: CA   and  CB  
REMARK    6  A    between atoms: CB   and  CG  
REMARK    7  A    between atoms: CG   and  CD  
REMARK       I    between atoms: CD   and  NE2 
ROOT
ATOM     10  CA  GLN A  14      -4.645   5.402  11.377  1.00 10.43     0.177 C 
ENDROOT
BRANCH  10  11
ATOM     11  CB  GLN A  14      -5.541   5.549  12.608  1.00 14.45     0.044 C 
BRANCH  11  12
ATOM     12  CG  GLN A  14      -6.886   4.872  12.477  1.00 13.74     0.105 C 
BRANCH  12  13
ATOM     13  CD  GLN A  14      -7.939   5.787  11.900  1.00 16.29     0.215 C 
ATOM     14  NE2 GLN A  14      -8.362   5.503  10.687  1.00  8.57    -0.370 N 
ATOM     15  H06 GLN A  14      -9.067   6.080  10.251  1.00  8.57     0.159 HD
ATOM     16  H07 GLN A  14      -7.983   4.709  10.193  1.00  8.57     0.159 HD
ATOM     17  OE1 GLN A  14      -8.368   6.735  12.539  1.00 23.55    -0.274 OA
ENDBRANCH  12  13
ENDBRANCH  11  12
ENDBRANCH  10  11
END_RES GLN A  14
BEGIN_RES SER A  16
REMARK  2 active torsions:
REMARK  status: ('A' for Active; 'I' for Inactive)
REMARK    8  A    between atoms: CA   and  CB  
REMARK    9  A    between atoms: CB   and  OG  
ROOT
ATOM     18  CA  SER A  16      -1.305  10.019  14.282  1.00  2.34     0.200 C 
ENDROOT
BRANCH  18  19
ATOM     19  CB  SER A  16      -2.242   9.935  15.479  1.00  3.12     0.199 C 
BRANCH  19  20
ATOM     20  OG  SER A  16      -3.450   9.291  15.115  1.00  1.00    -0.398 OA
ATOM     21  H04 SER A  16      -3.726   9.594  14.247  1.00  1.00     0.209 HD
ENDBRANCH  19  20
ENDBRANCH  18  19
END_RES SER A  16
BEGIN_RES LEU A  32
REMARK  2 active torsions:
REMARK  status: ('A' for Active; 'I' for Inactive)
REMARK   10  A    between atoms: CA   and  CB  
REMARK   11  A    between atoms: CB   and  CG  
ROOT
ATOM     22  CA  LEU A  32     -10.272  -4.106   1.587  1.00 16.16     0.177 C 
ENDROOT
BRANCH  22  23
ATOM     23  CB  LEU A  32     -11.613  -3.858   0.880  1.00 12.35     0.038 C 
BRANCH  23  24
ATOM     24  CG  LEU A  32     -12.653  -4.944   1.223  1.00  9.77    -0.020 C 
ATOM     25  CD1 LEU A  32     -12.396  -6.192   0.412  1.00  4.35     0.009 C 
ATOM     26  CD2 LEU A  32     -12.618  -5.276   2.692  1.00 10.60     0.009 C 
ENDBRANCH  23  24
ENDBRANCH  22  23
END_RES LEU A  32
BEGIN_RES HIS A  38
REMARK  2 active torsions:
REMARK  status: ('A' for Active; 'I' for Inactive)
REMARK   12  A    between atoms: CA   and  CB  
REMARK   13  A    between atoms: CB   and  CG  
ROOT
ATOM     27  CA  HIS A  38     -10.959   4.941   1.621  1.00 16.94     0.182 C 
ENDROOT
BRANCH  27  28
ATOM     28  CB  HIS A  38     -11.810   4.840   2.881  1.00 15.47     0.095 C 
BRANCH  28  29
ATOM     29  CG  HIS A  38     -12.987   3.929   2.743  1.00 18.62     0.053 A 
ATOM     30  CD2 HIS A  38     -14.148   4.075   2.060  1.00 15.06     0.116 A 
ATOM     31  NE2 HIS A  38     -14.870   2.924   2.246  1.00 18.12    -0.359 N 
ATOM     32  CE1 HIS A  38     -14.182   2.103   3.016  1.00 14.78     0.207 A 
ATOM     33  H06 HIS A  38     -15.783   2.736   1.857  1.00 18.12     0.166 HD
ATOM     34  ND1 HIS A  38     -13.042   2.685   3.331  1.00 16.58    -0.247 NA
ENDBRANCH  28  29
ENDBRANCH  27  28
END_RES HIS A  38
BEGIN_RES TRP A  63
REMARK  2 active torsions:
REMARK  status: ('A' for Active; 'I' for Inactive)
REMARK   14  A    between atoms: CA   and  CB  
REMARK   15  A    between atoms: CB   and  CG  
ROOT
ATOM     35  CA  TRP A  63     -22.437   6.257   6.543  1.00 27.04     0.181 C 
ENDROOT
BRANCH  35  36
ATOM     36  CB  TRP A  63     -22.360   6.642   5.068  1.00 31.37     0.075 C 
BRANCH  36  37
ATOM     37  CG  TRP A  63     -20.956   6.686   4.502  1.00 34.37    -0.028 A 
ATOM     38  CD2 TRP A  63     -19.929   5.696   4.650  1.00 33.79    -0.002 A 
ATOM     39  CE3 TRP A  63     -19.837   4.487   5.343  1.00 32.99     0.014 A 
ATOM     40  CE2 TRP A  63     -18.819   6.131   3.894  1.00 35.84     0.042 A 
ATOM     41  CZ3 TRP A  63     -18.658   3.760   5.263  1.00 32.93     0.001 A 
ATOM     42  CH2 TRP A  63     -17.570   4.220   4.503  1.00 39.24     0.002 A 
ATOM     43  CZ2 TRP A  63     -17.632   5.401   3.812  1.00 37.99     0.030 A 
ATOM     44  NE1 TRP A  63     -19.159   7.325   3.320  1.00 37.98    -0.365 N 
ATOM     45  H06 TRP A  63     -18.564   7.879   2.720  1.00 37.98     0.165 HD
ATOM     46  CD1 TRP A  63     -20.441   7.650   3.692  1.00 38.16     0.096 A 
ENDBRANCH  36  37
ENDBRANCH  35  36
END_RES TRP A  63
BEGIN_RES LEU A  66
REMARK  2 active torsions:
REMARK  status: ('A' for Active; 'I' for Inactive)
REMARK   16  A    between atoms: CA   and  CB  
REMARK   17  A    between atoms: CB   and  CG  
ROOT
ATOM     47  CA  LEU A  66     -20.004   6.489  11.120  1.00 10.90     0.177 C 
ENDROOT
BRANCH  47  48
ATOM     48  CB  LEU A  66     -19.626   5.453  10.069  1.00 13.57     0.038 C 
BRANCH  48  49
ATOM     49  CG  LEU A  66     -19.821   3.982  10.435  1.00  8.73    -0.020 C 
ATOM     50  CD1 LEU A  66     -21.197   3.514  10.038  1.00 14.23     0.009 C 
ATOM     51  CD2 LEU A  66     -18.772   3.169   9.720  1.00  1.92     0.009 C 
ENDBRANCH  48  49
ENDBRANCH  47  48
END_RES LEU A  66
BEGIN_RES PHE A  70
REMARK  2 active torsions:
REMARK  status: ('A' for Active; 'I' for Inactive)
REMARK   18  A    between atoms: CA   and  CB  
REMARK   19  A    between atoms: CB   and  CG  
ROOT
ATOM     52  CA  PHE A  70     -14.974   9.434  13.165  1.00  8.78     0.180 C 
ENDROOT
BRANCH  52  53
ATOM     53  CB  PHE A  70     -14.707   9.132  11.681  1.00  6.33     0.073 C 
BRANCH  53  54
ATOM     54  CG  PHE A  70     -13.924   7.867  11.459  1.00  3.42    -0.056 A 
ATOM     55  CD1 PHE A  70     -13.696   7.381  10.181  1.00 13.88     0.007 A 
ATOM     56  CE1 PHE A  70     -13.004   6.173   9.983  1.00 12.71     0.001 A 
ATOM     57  CZ  PHE A  70     -12.535   5.446  11.078  1.00  4.21     0.000 A 
ATOM     58  CE2 PHE A  70     -12.754   5.921  12.357  1.00  2.83     0.001 A 
ATOM     59  CD2 PHE A  70     -13.447   7.129  12.544  1.00  1.00     0.007 A 
ENDBRANCH  53  54
ENDBRANCH  52  53
END_RES PHE A  70
BEGIN_RES TYR A  73
REMARK  3 active torsions:
REMARK  status: ('A' for Active; 'I' for Inactive)
REMARK   20  A    between atoms: CA   and  CB  
REMARK   21  A    between atoms: CB   and  CG  
REMARK   22  A    between atoms: CZ   and  OH  
ROOT
ATOM     60  CA  TYR A  73     -13.212  10.166  17.260  1.00 12.17     0.180 C 
ENDROOT
BRANCH  60  61
ATOM     61  CB  TYR A  73     -13.301   8.846  16.517  1.00 12.84     0.073 C 
BRANCH  61  62
ATOM     62  CG  TYR A  73     -11.977   8.192  16.329  1.00 15.89    -0.056 A 
ATOM     63  CD1 TYR A  73     -11.245   7.746  17.407  1.00 16.00     0.010 A 
ATOM     64  CE1 TYR A  73      -9.991   7.161  17.236  1.00 13.55     0.037 A 
ATOM     65  CZ  TYR A  73      -9.475   7.027  15.963  1.00 18.13     0.065 A 
ATOM     66  CE2 TYR A  73     -10.186   7.462  14.869  1.00 15.89     0.037 A 
ATOM     67  CD2 TYR A  73     -11.434   8.042  15.058  1.00 21.86     0.010 A 
BRANCH  65  68
ATOM     68  OH  TYR A  73      -8.244   6.448  15.770  1.00 12.12    -0.361 OA
ATOM     69  H08 TYR A  73      -7.643   7.093  15.389  1.00 12.12     0.217 HD
ENDBRANCH  65  68
ENDBRANCH  61  62
ENDBRANCH  60  61
END_RES TYR A  73
BEGIN_RES PHE A  77
REMARK  2 active torsions:
REMARK  status: ('A' for Active; 'I' for Inactive)
REMARK   23  A    between atoms: CA   and  CB  
REMARK   24  A    between atoms: CB   and  CG  
ROOT
ATOM     70  CA  PHE A  77      -8.400  10.581  20.110  1.00 17.17     0.180 C 
ENDROOT
BRANCH  70  71
ATOM     71  CB  PHE A  77      -8.228   9.750  18.851  1.00 10.44     0.073 C 
BRANCH  71  72
ATOM     72  CG  PHE A  77      -6.919   9.028  18.779  1.00  6.07    -0.056 A 
ATOM     73  CD2 PHE A  77      -5.821   9.627  18.203  1.00  9.61     0.007 A 
ATOM     74  CE2 PHE A  77      -4.601   8.965  18.134  1.00  1.00     0.001 A 
ATOM     75  CZ  PHE A  77      -4.478   7.686  18.651  1.00  1.92     0.000 A 
ATOM     76  CE1 PHE A  77      -5.566   7.075  19.231  1.00  9.25     0.001 A 
ATOM     77  CD1 PHE A  77      -6.785   7.749  19.293  1.00  9.63     0.007 A 
ENDBRANCH  71  72
ENDBRANCH  70  71
END_RES PHE A  77
BEGIN_RES LEU A  96
REMARK  2 active torsions:
REMARK  status: ('A' for Active; 'I' for Inactive)
REMARK   25  A    between atoms: CA   and  CB  
REMARK   26  A    between atoms: CB   and  CG  
ROOT
ATOM     78  CA  LEU A  96       0.717   6.481  17.359  1.00 16.08     0.177 C 
ENDROOT
BRANCH  78  79
ATOM     79  CB  LEU A  96      -0.370   7.101  18.230  1.00 18.83     0.038 C 
BRANCH  79  80
ATOM     80  CG  LEU A  96      -0.394   6.594  19.672  1.00 19.03    -0.020 C 
ATOM     81  CD1 LEU A  96      -1.172   7.573  20.520  1.00 28.17     0.009 C 
ATOM     82  CD2 LEU A  96      -1.077   5.248  19.746  1.00 22.01     0.009 C 
ENDBRANCH  79  80
ENDBRANCH  78  79
END_RES LEU A  96
BEGIN_RES VAL A  98
REMARK  1 active torsions:
REMARK  status: ('A' for Active; 'I' for Inactive)
REMARK   27  A    between atoms: CA   and  CB  
ROOT
ATOM     83  CA  VAL A  98      -3.928   2.082  14.897  1.00 19.83     0.180 C 
ENDROOT
BRANCH  83  84
ATOM     84  CB  VAL A  98      -5.203   2.807  15.281  1.00 17.87     0.009 C 
ATOM     85  CG2 VAL A  98      -4.874   4.154  15.871  1.00 29.90     0.012 C 
ATOM     86  CG1 VAL A  98      -5.987   1.966  16.266  1.00 14.79     0.012 C 
ENDBRANCH  83  84
END_RES VAL A  98
BEGIN_RES ASN A 112
REMARK  2 active torsions:
REMARK  status: ('A' for Active; 'I' for Inactive)
REMARK   28  A    between atoms: CA   and  CB  
REMARK   29  A    between atoms: CB   and  CG  
REMARK       I    between atoms: CG   and  ND2 
ROOT
ATOM     87  CA  ASN A 112     -11.790  -8.793  14.069  1.00 37.70     0.185 C 
ENDROOT
BRANCH  87  88
ATOM     88  CB  ASN A 112     -12.992  -7.945  14.465  1.00 26.24     0.137 C 
BRANCH  88  89
ATOM     89  CG  ASN A 112     -13.806  -8.556  15.584  1.00 21.77     0.217 C 
ATOM     90  ND2 ASN A 112     -14.952  -9.136  15.228  1.00  9.31    -0.370 N 
ATOM     91  H04 ASN A 112     -15.541  -9.561  15.930  1.00  9.31     0.159 HD
ATOM     92  H05 ASN A 112     -15.230  -9.151  14.257  1.00  9.31     0.159 HD
ATOM     93  OD1 ASN A 112     -13.415  -8.505  16.756  1.00 21.61    -0.274 OA
ENDBRANCH  88  89
ENDBRANCH  87  88
END_RES ASN A 112
BEGIN_RES PHE A 114
REMARK  2 active torsions:
REMARK  status: ('A' for Active; 'I' for Inactive)
REMARK   30  A    between atoms: CA   and  CB  
REMARK   31  A    between atoms: CB   and  CG  
ROOT
ATOM     94  CA  PHE A 114      -7.754  -3.619  17.012  1.00 26.06     0.180 C 
ENDROOT
BRANCH  94  95
ATOM     95  CB  PHE A 114      -8.890  -3.080  17.867  1.00 19.95     0.073 C 
BRANCH  95  96
ATOM     96  CG  PHE A 114      -8.915  -1.588  17.946  1.00 17.65    -0.056 A 
ATOM     97  CD1 PHE A 114      -7.964  -0.898  18.693  1.00 13.01     0.007 A 
ATOM     98  CE1 PHE A 114      -8.004   0.487  18.791  1.00  6.74     0.001 A 
ATOM     99  CZ  PHE A 114      -9.001   1.204  18.136  1.00  6.27     0.000 A 
ATOM    100  CE2 PHE A 114      -9.952   0.528  17.389  1.00 17.36     0.001 A 
ATOM    101  CD2 PHE A 114      -9.907  -0.867  17.296  1.00 18.39     0.007 A 
ENDBRANCH  95  96
ENDBRANCH  94  95
END_RES PHE A 114
BEGIN_RES VAL A 116
REMARK  1 active torsions:
REMARK  status: ('A' for Active; 'I' for Inactive)
REMARK   32  A    between atoms: CA   and  CB  
ROOT
ATOM    102  CA  VAL A 116      -2.467   0.283  18.565  1.00 13.48     0.180 C 
ENDROOT
BRANCH 102 103
ATOM    103  CB  VAL A 116      -3.101   1.238  19.599  1.00 20.86     0.009 C 
ATOM    104  CG1 VAL A 116      -3.515   2.540  18.907  1.00 25.01     0.012 C 
ATOM    105  CG2 VAL A 116      -4.271   0.580  20.293  1.00 25.34     0.012 C 
ENDBRANCH 102 103
END_RES VAL A 116
BEGIN_RES ILE A 123
REMARK  2 active torsions:
REMARK  status: ('A' for Active; 'I' for Inactive)
REMARK   33  A    between atoms: CA   and  CB  
REMARK   34  A    between atoms: CB   and  CG1 
ROOT
ATOM    106  CA  ILE A 123       1.557  -1.626  23.222  1.00 15.07     0.180 C 
ENDROOT
BRANCH 106 107
ATOM    107  CB  ILE A 123       1.697  -0.112  23.461  1.00 14.41     0.013 C 
ATOM    108  CG2 ILE A 123       3.079   0.200  24.008  1.00 18.35     0.012 C 
BRANCH 107 109
ATOM    109  CG1 ILE A 123       1.458   0.654  22.162  1.00 15.23     0.002 C 
ATOM    110  CD1 ILE A 123       0.416   1.739  22.281  1.00 14.67     0.005 C 
ENDBRANCH 107 109
ENDBRANCH 106 107
END_RES ILE A 123
BEGIN_RES LEU A 124
REMARK  2 active torsions:
REMARK  status: ('A' for Active; 'I' for Inactive)
REMARK   35  A    between atoms: CA   and  CB  
REMARK   36  A    between atoms: CB   and  CG  
ROOT
ATOM    111  CA  LEU A 124      -2.057  -2.686  23.524  1.00 11.86     0.177 C 
ENDROOT
BRANCH 111 112
ATOM    112  CB  LEU A 124      -2.698  -1.652  24.429  1.00 14.60     0.038 C 
BRANCH 112 113
ATOM    113  CG  LEU A 124      -3.053  -0.377  23.679  1.00 16.19    -0.020 C 
ATOM    114  CD1 LEU A 124      -4.444   0.103  24.135  1.00 22.07     0.009 C 
ATOM    115  CD2 LEU A 124      -1.990   0.664  23.925  1.00  9.12     0.009 C 
ENDBRANCH 112 113
ENDBRANCH 111 112
END_RES LEU A 124
BEGIN_RES PHE A 126
REMARK  2 active torsions:
REMARK  status: ('A' for Active; 'I' for Inactive)
REMARK   37  A    between atoms: CA   and  CB  
REMARK   38  A    between atoms: CB   and  CG  
ROOT
ATOM    116  CA  PHE A 126      -8.784  -4.792  22.233  1.00 23.15     0.180 C 
ENDROOT
BRANCH 116 117
ATOM    117  CB  PHE A 126      -9.823  -4.011  21.461  1.00 20.65     0.073 C 
BRANCH 117 118
ATOM    118  CG  PHE A 126     -10.943  -3.531  22.299  1.00 23.65    -0.056 A 
ATOM    119  CD2 PHE A 126     -10.741  -2.544  23.248  1.00 36.63     0.007 A 
ATOM    120  CE2 PHE A 126     -11.803  -2.089  24.041  1.00 36.27     0.001 A 
ATOM    121  CZ  PHE A 126     -13.070  -2.630  23.877  1.00 18.06     0.000 A 
ATOM    122  CE1 PHE A 126     -13.275  -3.613  22.930  1.00  5.50     0.001 A 
ATOM    123  CD1 PHE A 126     -12.213  -4.058  22.143  1.00 15.29     0.007 A 
ENDBRANCH 117 118
ENDBRANCH 116 117
END_RES PHE A 126
BEGIN_RES TRP A 131
REMARK  2 active torsions:
REMARK  status: ('A' for Active; 'I' for Inactive)
REMARK   39  A    between atoms: CA   and  CB  
REMARK   40  A    between atoms: CB   and  CG  
ROOT
ATOM    124  CA  TRP A 131      -8.096  -3.335  26.542  1.00 14.52     0.181 C 
ENDROOT
BRANCH 124 125
ATOM    125  CB  TRP A 131      -7.651  -1.877  26.607  1.00 13.06     0.075 C 
BRANCH 125 126
ATOM    126  CG  TRP A 131      -8.084  -1.042  25.422  1.00 16.97    -0.028 A 
ATOM    127  CD2 TRP A 131      -9.136  -0.073  25.402  1.00 11.34    -0.002 A 
ATOM    128  CE2 TRP A 131      -9.189   0.466  24.102  1.00  5.87     0.042 A 
ATOM    129  CE3 TRP A 131     -10.041   0.390  26.363  1.00  3.80     0.014 A 
ATOM    130  CZ2 TRP A 131     -10.110   1.449  23.738  1.00  1.35     0.030 A 
ATOM    131  NE1 TRP A 131      -8.215  -0.147  23.362  1.00 13.90    -0.365 N 
ATOM    132  CH2 TRP A 131     -10.986   1.886  24.701  1.00  1.00     0.002 A 
ATOM    133  CZ3 TRP A 131     -10.958   1.363  26.008  1.00  1.00     0.001 A 
ATOM    134  CD1 TRP A 131      -7.555  -1.051  24.161  1.00 17.22     0.096 A 
ATOM    135  H07 TRP A 131      -8.014   0.035  22.389  1.00 13.90     0.165 HD
ENDBRANCH 125 126
ENDBRANCH 124 125
END_RES TRP A 131
BEGIN_RES LEU A 148
REMARK  2 active torsions:
REMARK  status: ('A' for Active; 'I' for Inactive)
REMARK   41  A    between atoms: CA   and  CB  
REMARK   42  A    between atoms: CB   and  CG  
ROOT
ATOM    136  CA  LEU A 148      -9.018   3.259  29.295  1.00 16.99     0.177 C 
ENDROOT
BRANCH 136 137
ATOM    137  CB  LEU A 148      -8.166   2.574  28.236  1.00  6.39     0.038 C 
BRANCH 137 138
ATOM    138  CG  LEU A 148      -6.752   3.036  27.951  1.00  1.00    -0.020 C 
ATOM    139  CD2 LEU A 148      -6.769   4.373  27.268  1.00  1.00     0.009 C 
ATOM    140  CD1 LEU A 148      -6.080   1.997  27.073  1.00  2.71     0.009 C 
ENDBRANCH 137 138
ENDBRANCH 136 137
END_RES LEU A 148
BEGIN_RES THR A 154
REMARK  2 active torsions:
REMARK  status: ('A' for Active; 'I' for Inactive)
REMARK   43  A    between atoms: CA   and  CB  
REMARK   44  A    between atoms: CB   and  OG1 
ROOT
ATOM    141  CA  THR A 154     -15.990   3.959  24.426  1.00 20.45     0.205 C 
ENDROOT
BRANCH 141 142
ATOM    142  CB  THR A 154     -14.777   4.829  24.694  1.00 16.79     0.146 C 
ATOM    143  CG2 THR A 154     -13.602   4.362  23.856  1.00 20.24     0.042 C 
BRANCH 142 144
ATOM    144  OG1 THR A 154     -15.089   6.182  24.340  1.00 18.84    -0.393 OA
ATOM    145  H06 THR A 154     -16.006   6.366  24.552  1.00 18.84     0.210 HD
ENDBRANCH 142 144
ENDBRANCH 141 142
END_RES THR A 154
BEGIN_RES VAL A 158
REMARK  1 active torsions:
REMARK  status: ('A' for Active; 'I' for Inactive)
REMARK   45  A    between atoms: CA   and  CB  
ROOT
ATOM    146  CA  VAL A 158     -15.487  -0.189  19.892  1.00 15.49     0.180 C 
ENDROOT
BRANCH 146 147
ATOM    147  CB  VAL A 158     -14.291  -0.273  20.822  1.00  6.52     0.009 C 
ATOM    148  CG1 VAL A 158     -13.219  -1.167  20.242  1.00  1.00     0.012 C 
ATOM    149  CG2 VAL A 158     -13.762   1.109  21.049  1.00  5.99     0.012 C 
ENDBRANCH 146 147
END_RES VAL A 158
BEGIN_RES LEU A 161
REMARK  2 active torsions:
REMARK  status: ('A' for Active; 'I' for Inactive)
REMARK   46  A    between atoms: CA   and  CB  
REMARK   47  A    between atoms: CB   and  CG  
ROOT
ATOM    150  CA  LEU A 161     -18.031  -1.858  15.935  1.00 13.31     0.177 C 
ENDROOT
BRANCH 150 151
ATOM    151  CB  LEU A 161     -17.046  -0.706  16.001  1.00 14.13     0.038 C 
BRANCH 151 152
ATOM    152  CG  LEU A 161     -17.465   0.581  15.301  1.00 19.39    -0.020 C 
ATOM    153  CD2 LEU A 161     -18.701   1.152  15.953  1.00 27.75     0.009 C 
ATOM    154  CD1 LEU A 161     -17.738   0.280  13.852  1.00 18.59     0.009 C 
ENDBRANCH 151 152
ENDBRANCH 150 151
END_RES LEU A 161
BEGIN_RES GLN A 168
REMARK  3 active torsions:
REMARK  status: ('A' for Active; 'I' for Inactive)
REMARK   48  A    between atoms: CA   and  CB  
REMARK   49  A    between atoms: CB   and  CG  
REMARK   50  A    between atoms: CG   and  CD  
REMARK       I    between atoms: CD   and  NE2 
ROOT
ATOM    155  CA  GLN A 168     -22.035  -6.020   8.155  1.00 30.94     0.177 C 
ENDROOT
BRANCH 155 156
ATOM    156  CB  GLN A 168     -23.054  -5.218   8.946  1.00 41.76     0.044 C 
BRANCH 156 157
ATOM    157  CG  GLN A 168     -24.480  -5.657   8.752  1.00 61.20     0.105 C 
BRANCH 157 158
ATOM    158  CD  GLN A 168     -25.300  -4.608   8.025  1.00 75.49     0.215 C 
ATOM    159  NE2 GLN A 168     -25.232  -3.366   8.508  1.00 85.00    -0.370 N 
ATOM    160  H06 GLN A 168     -25.757  -2.624   8.069  1.00 85.00     0.159 HD
ATOM    161  H07 GLN A 168     -24.654  -3.169   9.314  1.00 85.00     0.159 HD
ATOM    162  OE1 GLN A 168     -25.994  -4.907   7.043  1.00 73.64    -0.274 OA
ENDBRANCH 157 158
ENDBRANCH 156 157
ENDBRANCH 155 156
END_RES GLN A 168
ENDMDL
MODEL 2
REMARK VINA RESULT:      -5.7      1.347      2.113
REMARK  Name = human_CD1d_Tyloxapol_pred.rank_0
REMARK  175 active torsions:
REMARK  status: ('A' for Active; 'I' for Inactive)
REMARK    1  A    between atoms: C_1  and  C_3
REMARK    2  A    between atoms: C_3  and  O_4
REMARK    3  A    between atoms: O_4  and  C_5
REMARK    4  A    between atoms: C_5  and  C_7
REMARK    5  A    between atoms: O_6  and  C_7
REMARK    6  A    between atoms: O_6  and  C_9
REMARK    7  A    between atoms: O_8  and  C_11
REMARK    8  A    between atoms: O_8  and  C_13
REMARK    9  A    between atoms: C_9  and  C_11
REMARK   10  A    between atoms: O_10  and  C_15
REMARK   11  A    between atoms: O_10  and  C_17
REMARK   12  A    between atoms: O_12  and  C_19
REMARK   13  A    between atoms: O_12  and  C_21
REMARK   14  A    between atoms: C_13  and  C_15
REMARK   15  A    between atoms: O_14  and  C_23
REMARK   16  A    between atoms: O_14  and  C_25
REMARK   17  A    between atoms: O_16  and  C_27
REMARK   18  A    between atoms: O_16  and  C_29
REMARK   19  A    between atoms: C_17  and  C_19
REMARK   20  A    between atoms: O_18  and  C_37
REMARK   21  A    between atoms: O_18  and  C_39
REMARK   22  A    between atoms: O_20  and  C_41
REMARK   23  A    between atoms: O_20  and  C_43
REMARK   24  A    between atoms: C_21  and  C_23
REMARK   25  A    between atoms: O_22  and  C_49
REMARK   26  A    between atoms: O_22  and  C_51
REMARK   27  A    between atoms: O_24  and  C_53
REMARK   28  A    between atoms: O_24  and  C_55
REMARK   29  A    between atoms: C_25  and  C_27
REMARK   30  A    between atoms: O_26  and  C_57
REMARK   31  A    between atoms: O_26  and  C_59
REMARK   32  A    between atoms: O_28  and  C_61
REMARK   33  A    between atoms: O_28  and  C_63
REMARK   34  A    between atoms: C_29  and  C_31
REMARK   35  A    between atoms: O_30  and  C_65
REMARK   36  A    between atoms: O_30  and  C_67
REMARK   37  A    between atoms: C_31  and  C_33
REMARK   38  A    between atoms: O_32  and  C_69
REMARK   39  A    between atoms: O_32  and  C_71
REMARK   40  A    between atoms: C_33  and  C_35
REMARK   41  A    between atoms: O_34  and  C_73
REMARK   42  A    between atoms: O_34  and  C_75
REMARK   43  A    between atoms: C_35  and  C_37
REMARK   44  A    between atoms: O_36  and  C_77
REMARK   45  A    between atoms: O_36  and  C_79
REMARK   46  A    between atoms: O_38  and  C_81
REMARK   47  A    between atoms: O_38  and  C_83
REMARK   48  A    between atoms: C_39  and  C_41
REMARK   49  A    between atoms: O_40  and  C_85
REMARK   50  A    between atoms: O_40  and  C_87
REMARK   51  A    between atoms: C_43  and  C_45
REMARK   52  A    between atoms: C_43  and  C_163
REMARK   53  A    between atoms: O_44  and  C_116
REMARK   54  A    between atoms: O_44  and  C_117
REMARK   55  A    between atoms: C_45  and  C_47
REMARK   56  A    between atoms: C_45  and  C_150
REMARK   57  A    between atoms: O_46  and  C_118
REMARK   58  A    between atoms: O_46  and  C_119
REMARK   59  A    between atoms: O_48  and  C_120
REMARK   60  A    between atoms: O_48  and  C_121
REMARK   61  A    between atoms: O_50  and  C_122
REMARK   62  A    between atoms: O_50  and  C_123
REMARK   63  A    between atoms: C_51  and  C_53
REMARK   64  A    between atoms: O_52  and  C_124
REMARK   65  A    between atoms: O_52  and  C_125
REMARK   66  A    between atoms: O_54  and  C_126
REMARK   67  A    between atoms: O_54  and  C_127
REMARK   68  A    between atoms: C_55  and  C_57
REMARK   69  A    between atoms: O_56  and  C_128
REMARK   70  A    between atoms: O_56  and  C_129
REMARK   71  A    between atoms: O_58  and  C_130
REMARK   72  A    between atoms: O_58  and  C_131
REMARK   73  A    between atoms: C_59  and  C_61
REMARK   74  A    between atoms: O_60  and  C_132
REMARK   75  A    between atoms: O_60  and  C_133
REMARK   76  A    between atoms: O_62  and  C_134
REMARK   77  A    between atoms: O_62  and  C_135
REMARK   78  A    between atoms: C_63  and  C_65
REMARK   79  A    between atoms: O_66  and  C_180
REMARK   80  A    between atoms: O_66  and  C_181
REMARK   81  A    between atoms: C_67  and  C_69
REMARK   82  A    between atoms: O_68  and  C_182
REMARK   83  A    between atoms: O_68  and  C_183
REMARK   84  A    between atoms: O_70  and  C_184
REMARK   85  A    between atoms: O_70  and  C_185
REMARK   86  A    between atoms: C_71  and  C_73
REMARK   87  A    between atoms: O_72  and  C_186
REMARK   88  A    between atoms: O_72  and  C_187
REMARK   89  A    between atoms: O_74  and  C_188
REMARK   90  A    between atoms: O_74  and  C_189
REMARK   91  A    between atoms: C_75  and  C_77
REMARK   92  A    between atoms: O_76  and  C_190
REMARK   93  A    between atoms: O_76  and  C_191
REMARK   94  A    between atoms: O_78  and  C_192
REMARK   95  A    between atoms: O_78  and  C_193
REMARK   96  A    between atoms: C_79  and  C_81
REMARK   97  A    between atoms: O_80  and  C_194
REMARK   98  A    between atoms: O_80  and  C_195
REMARK   99  A    between atoms: O_82  and  C_196
REMARK  100  A    between atoms: O_82  and  C_197
REMARK  101  A    between atoms: C_83  and  C_85
REMARK  102  A    between atoms: O_84  and  C_198
REMARK  103  A    between atoms: O_84  and  C_199
REMARK  104  A    between atoms: C_87  and  C_89
REMARK  105  A    between atoms: O_88  and  C_215
REMARK  106  A    between atoms: O_88  and  C_216
REMARK  107  A    between atoms: O_90  and  C_217
REMARK  108  A    between atoms: O_90  and  C_218
REMARK  109  A    between atoms: O_92  and  C_219
REMARK  110  A    between atoms: O_92  and  C_220
REMARK  111  A    between atoms: O_94  and  C_221
REMARK  112  A    between atoms: O_94  and  C_222
REMARK  113  A    between atoms: O_96  and  C_223
REMARK  114  A    between atoms: O_96  and  C_224
REMARK  115  A    between atoms: C_97  and  C_99
REMARK  116  A    between atoms: O_98  and  C_225
REMARK  117  A    between atoms: O_98  and  C_226
REMARK  118  A    between atoms: C_99  and  C_105
REMARK  119  A    between atoms: O_100  and  C_227
REMARK  120  A    between atoms: O_100  and  C_228
REMARK  121  A    between atoms: O_102  and  C_229
REMARK  122  A    between atoms: O_102  and  C_230
REMARK  123  A    between atoms: O_104  and  C_231
REMARK  124  A    between atoms: O_104  and  C_232
REMARK  125  A    between atoms: C_105  and  C_107
REMARK  126  A    between atoms: O_106  and  C_233
REMARK  127  A    between atoms: O_106  and  C_234
REMARK  128  A    between atoms: C_117  and  C_118
REMARK  129  A    between atoms: C_119  and  C_120
REMARK  130  A    between atoms: C_121  and  C_122
REMARK  131  A    between atoms: C_123  and  C_124
REMARK  132  A    between atoms: C_125  and  C_126
REMARK  133  A    between atoms: C_127  and  C_128
REMARK  134  A    between atoms: C_129  and  C_130
REMARK  135  A    between atoms: C_131  and  C_132
REMARK  136  A    between atoms: C_133  and  C_134
REMARK  137  A    between atoms: C_135  and  C_136
REMARK  138  A    between atoms: C_138  and  C_139
REMARK  139  A    between atoms: C_139  and  C_142
REMARK  140  A    between atoms: C_142  and  C_145
REMARK  141  A    between atoms: C_150  and  C_151
REMARK  142  A    between atoms: C_151  and  C_152
REMARK  143  A    between atoms: C_152  and  C_155
REMARK  144  A    between atoms: C_155  and  C_158
REMARK  145  A    between atoms: C_163  and  C_164
REMARK  146  A    between atoms: C_166  and  C_167
REMARK  147  A    between atoms: C_167  and  C_168
REMARK  148  A    between atoms: C_168  and  C_171
REMARK  149  A    between atoms: C_178  and  C_179
REMARK  150  A    between atoms: C_179  and  C_180
REMARK  151  A    between atoms: C_179  and  C_214
REMARK  152  A    between atoms: C_181  and  C_182
REMARK  153  A    between atoms: C_183  and  C_184
REMARK  154  A    between atoms: C_185  and  C_186
REMARK  155  A    between atoms: C_187  and  C_188
REMARK  156  A    between atoms: C_189  and  C_190
REMARK  157  A    between atoms: C_191  and  C_192
REMARK  158  A    between atoms: C_193  and  C_194
REMARK  159  A    between atoms: C_195  and  C_196
REMARK  160  A    between atoms: C_197  and  C_198
REMARK  161  A    between atoms: C_199  and  C_200
REMARK  162  A    between atoms: C_203  and  C_204
REMARK  163  A    between atoms: C_203  and  C_214
REMARK  164  A    between atoms: C_204  and  C_207
REMARK  165  A    between atoms: C_207  and  C_210
REMARK  166  A    between atoms: C_216  and  C_217
REMARK  167  A    between atoms: C_218  and  C_219
REMARK  168  A    between atoms: C_220  and  C_221
REMARK  169  A    between atoms: C_222  and  C_223
REMARK  170  A    between atoms: C_224  and  C_225
REMARK  171  A    between atoms: C_226  and  C_227
REMARK  172  A    between atoms: C_228  and  C_229
REMARK  173  A    between atoms: C_230  and  C_231
REMARK  174  A    between atoms: C_232  and  C_233
REMARK  175  A    between atoms: C_234  and  C_235
REMARK                            x       y       z     vdW  Elec       q    Type
REMARK                         _______ _______ _______ _____ _____    ______ ____
ROOT
ATOM      1  C   UNL     1     -13.083  11.637  27.920  0.00  0.00    +0.000 C 
ENDROOT
BRANCH   1   2
ATOM      2  C   UNL     1     -12.751  10.435  26.413  0.00  0.00    +0.000 C 
BRANCH   2   3
ATOM      3  C   UNL     1     -12.612   8.899  26.669  0.00  0.00    +0.000 C 
ATOM      4  C   UNL     1     -11.682   8.574  27.999  0.00  0.00    +0.000 C 
ATOM      5  C   UNL     1     -10.232   8.296  27.626  0.00  0.00    +0.000 C 
ATOM      6  C   UNL     1     -10.213   6.800  26.723  0.00  0.00    +0.000 C 
ATOM      7  C   UNL     1     -10.581   6.792  25.296  0.00  0.00    +0.000 C 
ATOM      8  C   UNL     1     -12.065   7.725  25.087  0.00  0.00    +0.000 C 
BRANCH   5   9
ATOM      9  C   UNL     1      -9.267   8.262  28.935  0.00  0.00    +0.000 C 
ATOM     10  C   UNL     1      -9.951   8.397  29.932  0.00  0.00    +0.000 C 
ATOM     11  C   UNL     1      -8.378   6.951  28.788  0.00  0.00    +0.000 C 
BRANCH   9  12
ATOM     12  C   UNL     1      -8.125   9.444  28.916  0.00  0.00    +0.000 C 
ATOM     13  C   UNL     1      -7.210   9.312  27.673  0.00  0.00    +0.000 C 
ATOM     14  C   UNL     1      -6.916   9.135  30.079  0.00  0.00    +0.000 C 
BRANCH  12  15
ATOM     15  C   UNL     1      -8.473  10.853  29.279  0.00  0.00    +0.000 C 
ATOM     16  C   UNL     1      -7.408  11.558  28.451  0.00  0.00    +0.000 C 
ATOM     17  C   UNL     1      -8.244  11.268  30.677  0.00  0.00    +0.000 C 
ATOM     18  C   UNL     1      -9.847  11.225  28.911  0.00  0.00    +0.000 C 
ENDBRANCH  12  15
ENDBRANCH   9  12
ENDBRANCH   5   9
BRANCH   7  19
ATOM     19  C   UNL     1     -10.171   5.502  24.467  0.00  0.00    +0.000 C 
BRANCH  19  20
ATOM     20  C   UNL     1     -10.323   5.681  22.913  0.00  0.00    +0.000 C 
ATOM     21  C   UNL     1      -9.607   6.985  22.379  0.00  0.00    +0.000 C 
BRANCH  20  22
ATOM     22  O   UNL     1      -9.596   4.593  22.234  0.00  0.00    +0.000 OA
BRANCH  22  23
ATOM     23  C   UNL     1      -9.563   4.675  20.835  0.00  0.00    +0.000 C 
BRANCH  23  24
ATOM     24  C   UNL     1     -10.597   3.741  20.225  0.00  0.00    +0.000 C 
BRANCH  24  25
ATOM     25  O   UNL     1     -10.413   3.700  18.847  0.00  0.00    +0.000 OA
BRANCH  25  26
ATOM     26  C   UNL     1     -11.585   3.321  18.141  0.00  0.00    +0.000 C 
BRANCH  26  27
ATOM     27  C   UNL     1     -11.398   3.474  16.694  0.00  0.00    +0.000 C 
BRANCH  27  28
ATOM     28  O   UNL     1     -10.087   3.192  16.370  0.00  0.00    +0.000 OA
BRANCH  28  29
ATOM     29  C   UNL     1      -9.861   2.933  14.999  0.00  0.00    +0.000 C 
BRANCH  29  30
ATOM     30  C   UNL     1     -11.160   3.097  14.246  0.00  0.00    +0.000 C 
BRANCH  30  31
ATOM     31  O   UNL     1     -10.914   2.821  12.902  0.00  0.00    +0.000 OA
BRANCH  31  32
ATOM     32  C   UNL     1     -11.946   1.986  12.346  0.00  0.00    +0.000 C 
BRANCH  32  33
ATOM     33  C   UNL     1     -13.288   2.440  12.942  0.00  0.00    +0.000 C 
BRANCH  33  34
ATOM     34  O   UNL     1     -14.249   2.400  11.936  0.00  0.00    +0.000 OA
BRANCH  34  35
ATOM     35  C   UNL     1     -15.454   3.128  12.244  0.00  0.00    +0.000 C 
BRANCH  35  36
ATOM     36  C   UNL     1     -15.378   3.812  13.575  0.00  0.00    +0.000 C 
BRANCH  36  37
ATOM     37  O   UNL     1     -16.708   3.728  14.167  0.00  0.00    +0.000 OA
BRANCH  37  38
ATOM     38  C   UNL     1     -17.691   3.658  13.165  0.00  0.00    +0.000 C 
BRANCH  38  39
ATOM     39  C   UNL     1     -19.072   3.643  13.686  0.00  0.00    +0.000 C 
BRANCH  39  40
ATOM     40  O   UNL     1     -19.876   2.711  12.820  0.00  0.00    +0.000 OA
BRANCH  40  41
ATOM     41  C   UNL     1     -21.262   2.910  12.969  0.00  0.00    +0.000 C 
BRANCH  41  42
ATOM     42  C   UNL     1     -21.759   2.358  14.258  0.00  0.00    +0.000 C 
BRANCH  42  43
ATOM     43  O   UNL     1     -22.709   1.390  14.048  0.00  0.00    +0.000 OA
BRANCH  43  44
ATOM     44  C   UNL     1     -23.734   1.711  13.151  0.00  0.00    +0.000 C 
BRANCH  44  45
ATOM     45  C   UNL     1     -24.080   0.569  12.264  0.00  0.00    +0.000 C 
BRANCH  45  46
ATOM     46  O   UNL     1     -25.501   0.569  12.095  0.00  0.00    +0.000 OA
BRANCH  46  47
ATOM     47  C   UNL     1     -25.899  -0.635  11.459  0.00  0.00    +0.000 C 
BRANCH  47  48
ATOM     48  C   UNL     1     -24.630  -1.246  10.731  0.00  0.00    +0.000 C 
BRANCH  48  49
ATOM     49  O   UNL     1     -24.709  -2.629  10.754  0.00  0.00    +0.000 OA
BRANCH  49  50
ATOM     50  C   UNL     1     -24.471  -3.229  11.982  0.00  0.00    +0.000 C 
BRANCH  50  52
ATOM     51  O   UNL     1     -24.528  -5.560  12.486  0.00  0.00    +0.000 OA
ATOM     52  C   UNL     1     -25.390  -4.457  12.145  0.00  0.00    +0.000 C 
ENDBRANCH  50  52
ENDBRANCH  49  50
ENDBRANCH  48  49
ENDBRANCH  47  48
ENDBRANCH  46  47
ENDBRANCH  45  46
ENDBRANCH  44  45
ENDBRANCH  43  44
ENDBRANCH  42  43
ENDBRANCH  41  42
ENDBRANCH  40  41
ENDBRANCH  39  40
ENDBRANCH  38  39
ENDBRANCH  37  38
ENDBRANCH  36  37
ENDBRANCH  35  36
ENDBRANCH  34  35
ENDBRANCH  33  34
ENDBRANCH  32  33
ENDBRANCH  31  32
ENDBRANCH  30  31
ENDBRANCH  29  30
ENDBRANCH  28  29
ENDBRANCH  27  28
ENDBRANCH  26  27
ENDBRANCH  25  26
ENDBRANCH  24  25
ENDBRANCH  23  24
ENDBRANCH  22  23
ENDBRANCH  20  22
ENDBRANCH  19  20
BRANCH  19  53
ATOM     53  C   UNL     1      -8.669   4.939  24.667  0.00  0.00    +0.000 C 
BRANCH  53  55
ATOM     54  C   UNL     1      -7.391   6.938  24.729  0.00  0.00    +0.000 C 
ATOM     55  C   UNL     1      -7.468   5.484  24.428  0.00  0.00    +0.000 C 
BRANCH  55  56
ATOM     56  C   UNL     1      -6.249   4.737  23.892  0.00  0.00    +0.000 C 
ATOM     57  C   UNL     1      -5.278   4.838  25.019  0.00  0.00    +0.000 C 
ATOM     58  C   UNL     1      -6.596   3.286  23.721  0.00  0.00    +0.000 C 
BRANCH  56  59
ATOM     59  C   UNL     1      -5.725   5.369  22.567  0.00  0.00    +0.000 C 
ATOM     60  C   UNL     1      -6.096   6.795  22.435  0.00  0.00    +0.000 C 
ATOM     61  C   UNL     1      -6.344   4.568  21.398  0.00  0.00    +0.000 C 
BRANCH  59  62
ATOM     62  C   UNL     1      -4.142   5.268  22.378  0.00  0.00    +0.000 C 
ATOM     63  C   UNL     1      -3.459   6.452  22.963  0.00  0.00    +0.000 C 
ATOM     64  C   UNL     1      -3.806   5.287  20.906  0.00  0.00    +0.000 C 
ATOM     65  C   UNL     1      -3.562   4.037  22.884  0.00  0.00    +0.000 C 
ENDBRANCH  59  62
ENDBRANCH  56  59
ENDBRANCH  55  56
ENDBRANCH  53  55
ENDBRANCH  19  53
ENDBRANCH   7  19
BRANCH   8  66
ATOM     66  O   UNL     1     -12.877   7.745  23.990  0.00  0.00    +0.000 OA
BRANCH  66  67
ATOM     67  C   UNL     1     -12.634   8.778  23.064  0.00  0.00    +0.000 C 
BRANCH  67  68
ATOM     68  C   UNL     1     -12.959   8.487  21.582  0.00  0.00    +0.000 C 
BRANCH  68  69
ATOM     69  O   UNL     1     -14.104   7.683  21.520  0.00  0.00    +0.000 OA
BRANCH  69  70
ATOM     70  C   UNL     1     -14.341   7.138  20.181  0.00  0.00    +0.000 C 
BRANCH  70  71
ATOM     71  C   UNL     1     -13.687   5.776  20.025  0.00  0.00    +0.000 C 
BRANCH  71  72
ATOM     72  O   UNL     1     -14.626   4.702  20.605  0.00  0.00    +0.000 OA
BRANCH  72  73
ATOM     73  C   UNL     1     -15.018   3.775  19.601  0.00  0.00    +0.000 C 
BRANCH  73  74
ATOM     74  C   UNL     1     -15.410   4.550  18.337  0.00  0.00    +0.000 C 
BRANCH  74  75
ATOM     75  O   UNL     1     -15.143   3.808  17.190  0.00  0.00    +0.000 OA
BRANCH  75  76
ATOM     76  C   UNL     1     -15.176   2.392  17.411  0.00  0.00    +0.000 C 
BRANCH  76  77
ATOM     77  C   UNL     1     -14.338   1.648  16.406  0.00  0.00    +0.000 C 
BRANCH  77  78
ATOM     78  O   UNL     1     -13.617   0.691  17.169  0.00  0.00    +0.000 OA
BRANCH  78  79
ATOM     79  C   UNL     1     -13.434  -0.590  16.478  0.00  0.00    +0.000 C 
BRANCH  79  80
ATOM     80  C   UNL     1     -13.078  -0.268  15.077  0.00  0.00    +0.000 C 
BRANCH  80  81
ATOM     81  O   UNL     1     -13.878  -1.007  14.116  0.00  0.00    +0.000 OA
BRANCH  81  82
ATOM     82  C   UNL     1     -13.132  -1.590  13.095  0.00  0.00    +0.000 C 
BRANCH  82  83
ATOM     83  C   UNL     1     -13.784  -1.313  11.726  0.00  0.00    +0.000 C 
BRANCH  83  84
ATOM     84  O   UNL     1     -15.143  -0.982  11.887  0.00  0.00    +0.000 OA
BRANCH  84  85
ATOM     85  C   UNL     1     -15.833  -0.629  10.795  0.00  0.00    +0.000 C 
BRANCH  85  86
ATOM     86  C   UNL     1     -15.058  -1.007   9.516  0.00  0.00    +0.000 C 
BRANCH  86  87
ATOM     87  O   UNL     1     -14.843   0.084   8.658  0.00  0.00    +0.000 OA
BRANCH  87  88
ATOM     88  C   UNL     1     -15.657   1.175   8.910  0.00  0.00    +0.000 C 
BRANCH  88  89
ATOM     89  C   UNL     1     -15.015   2.465   8.426  0.00  0.00    +0.000 C 
BRANCH  89  90
ATOM     90  O   UNL     1     -15.124   2.546   7.009  0.00  0.00    +0.000 OA
BRANCH  90  91
ATOM     91  C   UNL     1     -13.861   2.988   6.469  0.00  0.00    +0.000 C 
BRANCH  91  92
ATOM     92  C   UNL     1     -13.969   4.470   6.213  0.00  0.00    +0.000 C 
BRANCH  92  93
ATOM     93  O   UNL     1     -12.906   5.125   6.901  0.00  0.00    +0.000 OA
BRANCH  93  94
ATOM     94  C   UNL     1     -11.663   4.616   6.601  0.00  0.00    +0.000 C 
BRANCH  94  96
ATOM     95  O   UNL     1      -9.571   5.056   7.698  0.00  0.00    +0.000 OA
ATOM     96  C   UNL     1     -10.569   5.644   6.906  0.00  0.00    +0.000 C 
ENDBRANCH  94  96
ENDBRANCH  93  94
ENDBRANCH  92  93
ENDBRANCH  91  92
ENDBRANCH  90  91
ENDBRANCH  89  90
ENDBRANCH  88  89
ENDBRANCH  87  88
ENDBRANCH  86  87
ENDBRANCH  85  86
ENDBRANCH  84  85
ENDBRANCH  83  84
ENDBRANCH  82  83
ENDBRANCH  81  82
ENDBRANCH  80  81
ENDBRANCH  79  80
ENDBRANCH  78  79
ENDBRANCH  77  78
ENDBRANCH  76  77
ENDBRANCH  75  76
ENDBRANCH  74  75
ENDBRANCH  73  74
ENDBRANCH  72  73
ENDBRANCH  71  72
ENDBRANCH  70  71
ENDBRANCH  69  70
ENDBRANCH  68  69
ENDBRANCH  67  68
ENDBRANCH  66  67
ENDBRANCH   8  66
ENDBRANCH   2   3
ENDBRANCH   1   2
BRANCH   1  97
ATOM     97  C   UNL     1     -14.240  11.573  28.899  0.00  0.00    +0.000 C 
BRANCH  97  98
ATOM     98  C   UNL     1     -15.522  10.800  28.284  0.00  0.00    +0.000 C 
ATOM     99  C   UNL     1     -16.144  11.558  27.073  0.00  0.00    +0.000 C 
ATOM    100  C   UNL     1     -17.417  10.889  26.389  0.00  0.00    +0.000 C 
ATOM    101  C   UNL     1     -18.526  10.800  25.435  0.00  0.00    +0.000 C 
ATOM    102  C   UNL     1     -19.910  10.263  25.713  0.00  0.00    +0.000 C 
ATOM    103  C   UNL     1     -20.946  10.274  24.703  0.00  0.00    +0.000 C 
ATOM    104  C   UNL     1     -20.607  10.886  23.446  0.00  0.00    +0.000 C 
ATOM    105  C   UNL     1     -19.330  11.318  23.109  0.00  0.00    +0.000 C 
ATOM    106  C   UNL     1     -18.418  11.207  24.115  0.00  0.00    +0.000 C 
ATOM    107  C   UNL     1     -17.768  10.369  26.949  0.00  0.00    +0.000 C 
ATOM    108  C   UNL     1     -17.416   9.479  27.903  0.00  0.00    +0.000 C 
ATOM    109  C   UNL     1     -15.982   9.461  28.453  0.00  0.00    +0.000 C 
BRANCH 103 110
ATOM    110  C   UNL     1     -22.292   9.621  25.006  0.00  0.00    +0.000 C 
ATOM    111  C   UNL     1     -22.751   9.054  23.632  0.00  0.00    +0.000 C 
ATOM    112  C   UNL     1     -22.084   8.449  25.848  0.00  0.00    +0.000 C 
BRANCH 110 113
ATOM    113  C   UNL     1     -23.467  10.437  25.592  0.00  0.00    +0.000 C 
ATOM    114  C   UNL     1     -24.718   9.826  25.046  0.00  0.00    +0.000 C 
ATOM    115  C   UNL     1     -23.434  10.333  27.120  0.00  0.00    +0.000 C 
BRANCH 113 116
ATOM    116  C   UNL     1     -23.426  12.000  25.277  0.00  0.00    +0.000 C 
ATOM    117  C   UNL     1     -22.190  12.643  25.874  0.00  0.00    +0.000 C 
ATOM    118  C   UNL     1     -24.555  12.698  25.946  0.00  0.00    +0.000 C 
ATOM    119  C   UNL     1     -23.513  12.254  23.798  0.00  0.00    +0.000 C 
ENDBRANCH 113 116
ENDBRANCH 110 113
ENDBRANCH 103 110
BRANCH 108 120
ATOM    120  C   UNL     1     -18.563   8.924  28.826  0.00  0.00    +0.000 C 
ATOM    121  C   UNL     1     -17.982   7.705  29.562  0.00  0.00    +0.000 C 
ATOM    122  C   UNL     1     -19.613   8.376  27.929  0.00  0.00    +0.000 C 
BRANCH 120 123
ATOM    123  C   UNL     1     -19.095   9.877  30.034  0.00  0.00    +0.000 C 
ATOM    124  C   UNL     1     -18.993   9.260  31.358  0.00  0.00    +0.000 C 
ATOM    125  C   UNL     1     -18.269  11.136  30.121  0.00  0.00    +0.000 C 
BRANCH 123 126
ATOM    126  C   UNL     1     -20.609  10.273  29.931  0.00  0.00    +0.000 C 
ATOM    127  C   UNL     1     -20.736  11.371  28.934  0.00  0.00    +0.000 C 
ATOM    128  C   UNL     1     -21.106  10.846  31.230  0.00  0.00    +0.000 C 
ATOM    129  C   UNL     1     -21.443   9.083  29.640  0.00  0.00    +0.000 C 
ENDBRANCH 123 126
ENDBRANCH 120 123
ENDBRANCH 108 120
BRANCH 106 130
ATOM    130  O   UNL     1     -17.092  11.405  23.809  0.00  0.00    +0.000 OA
BRANCH 130 131
ATOM    131  C   UNL     1     -16.287  10.284  23.371  0.00  0.00    +0.000 C 
BRANCH 131 132
ATOM    132  C   UNL     1     -16.253  10.323  21.854  0.00  0.00    +0.000 C 
BRANCH 132 133
ATOM    133  O   UNL     1     -17.009   9.286  21.333  0.00  0.00    +0.000 OA
BRANCH 133 134
ATOM    134  C   UNL     1     -17.274   9.428  19.946  0.00  0.00    +0.000 C 
BRANCH 134 135
ATOM    135  C   UNL     1     -18.685   9.859  19.747  0.00  0.00    +0.000 C 
BRANCH 135 136
ATOM    136  O   UNL     1     -18.877   9.728  18.624  0.00  0.00    +0.000 OA
BRANCH 136 137
ATOM    137  C   UNL     1     -19.584   8.576  18.325  0.00  0.00    +0.000 C 
BRANCH 137 138
ATOM    138  C   UNL     1     -21.076   8.848  17.932  0.00  0.00    +0.000 C 
BRANCH 138 139
ATOM    139  O   UNL     1     -21.796   7.763  18.301  0.00  0.00    +0.000 OA
BRANCH 139 140
ATOM    140  C   UNL     1     -23.157   8.092  18.657  0.00  0.00    +0.000 C 
BRANCH 140 141
ATOM    141  C   UNL     1     -23.788   8.852  17.533  0.00  0.00    +0.000 C 
BRANCH 141 142
ATOM    142  O   UNL     1     -24.303   7.952  16.577  0.00  0.00    +0.000 OA
BRANCH 142 143
ATOM    143  C   UNL     1     -25.711   8.070  16.391  0.00  0.00    +0.000 C 
BRANCH 143 144
ATOM    144  C   UNL     1     -26.440   6.956  17.189  0.00  0.00    +0.000 C 
BRANCH 144 145
ATOM    145  O   UNL     1     -25.612   5.792  17.351  0.00  0.00    +0.000 OA
BRANCH 145 146
ATOM    146  C   UNL     1     -25.924   4.612  16.598  0.00  0.00    +0.000 C 
BRANCH 146 147
ATOM    147  C   UNL     1     -24.696   3.963  16.011  0.00  0.00    +0.000 C 
BRANCH 147 148
ATOM    148  O   UNL     1     -24.656   2.599  16.471  0.00  0.00    +0.000 OA
BRANCH 148 149
ATOM    149  C   UNL     1     -24.095   2.411  17.761  0.00  0.00    +0.000 C 
BRANCH 149 150
ATOM    150  C   UNL     1     -22.696   2.987  17.799  0.00  0.00    +0.000 C 
BRANCH 150 151
ATOM    151  O   UNL     1     -21.945   2.283  18.797  0.00  0.00    +0.000 OA
BRANCH 151 152
ATOM    152  C   UNL     1     -22.235   2.591  20.116  0.00  0.00    +0.000 C 
BRANCH 152 153
ATOM    153  C   UNL     1     -22.410   1.339  20.956  0.00  0.00    +0.000 C 
BRANCH 153 154
ATOM    154  O   UNL     1     -22.316   1.682  22.338  0.00  0.00    +0.000 OA
BRANCH 154 155
ATOM    155  C   UNL     1     -23.021   0.826  23.191  0.00  0.00    +0.000 C 
BRANCH 155 156
ATOM    156  C   UNL     1     -24.450   1.373  23.437  0.00  0.00    +0.000 C 
BRANCH 156 157
ATOM    157  O   UNL     1     -25.344   0.601  22.628  0.00  0.00    +0.000 OA
BRANCH 157 158
ATOM    158  C   UNL     1     -25.165  -0.782  22.783  0.00  0.00    +0.000 C 
BRANCH 158 160
ATOM    159  O   UNL     1     -26.482  -2.830  23.220  0.00  0.00    +0.000 OA
ATOM    160  C   UNL     1     -26.519  -1.325  22.930  0.00  0.00    +0.000 C 
ENDBRANCH 158 160
ENDBRANCH 157 158
ENDBRANCH 156 157
ENDBRANCH 155 156
ENDBRANCH 154 155
ENDBRANCH 153 154
ENDBRANCH 152 153
ENDBRANCH 151 152
ENDBRANCH 150 151
ENDBRANCH 149 150
ENDBRANCH 148 149
ENDBRANCH 147 148
ENDBRANCH 146 147
ENDBRANCH 145 146
ENDBRANCH 144 145
ENDBRANCH 143 144
ENDBRANCH 142 143
ENDBRANCH 141 142
ENDBRANCH 140 141
ENDBRANCH 139 140
ENDBRANCH 138 139
ENDBRANCH 137 138
ENDBRANCH 136 137
ENDBRANCH 135 136
ENDBRANCH 134 135
ENDBRANCH 133 134
ENDBRANCH 132 133
ENDBRANCH 131 132
ENDBRANCH 130 131
ENDBRANCH 106 130
BRANCH  99 161
ATOM    161  O   UNL     1     -16.196  12.930  27.076  0.00  0.00    +0.000 OA
BRANCH 161 162
ATOM    162  C   UNL     1     -17.458  13.590  26.927  0.00  0.00    +0.000 C 
BRANCH 162 163
ATOM    163  C   UNL     1     -17.444  14.856  26.086  0.00  0.00    +0.000 C 
BRANCH 163 164
ATOM    164  O   UNL     1     -16.209  15.497  26.189  0.00  0.00    +0.000 OA
BRANCH 164 165
ATOM    165  C   UNL     1     -15.647  15.918  24.974  0.00  0.00    +0.000 C 
BRANCH 165 166
ATOM    166  C   UNL     1     -14.990  14.778  24.191  0.00  0.00    +0.000 C 
BRANCH 166 167
ATOM    167  O   UNL     1     -15.193  15.003  22.773  0.00  0.00    +0.000 OA
BRANCH 167 168
ATOM    168  C   UNL     1     -16.561  14.906  22.439  0.00  0.00    +0.000 C 
BRANCH 168 169
ATOM    169  C   UNL     1     -16.929  15.914  21.361  0.00  0.00    +0.000 C 
BRANCH 169 170
ATOM    170  O   UNL     1     -16.575  17.201  21.762  0.00  0.00    +0.000 OA
BRANCH 170 171
ATOM    171  C   UNL     1     -17.128  18.219  20.952  0.00  0.00    +0.000 C 
BRANCH 171 172
ATOM    172  C   UNL     1     -16.530  18.191  19.509  0.00  0.00    +0.000 C 
BRANCH 172 173
ATOM    173  O   UNL     1     -17.620  18.174  18.602  0.00  0.00    +0.000 OA
BRANCH 173 174
ATOM    174  C   UNL     1     -17.575  16.961  17.789  0.00  0.00    +0.000 C 
BRANCH 174 175
ATOM    175  C   UNL     1     -16.124  16.630  17.448  0.00  0.00    +0.000 C 
BRANCH 175 176
ATOM    176  O   UNL     1     -16.075  16.228  16.118  0.00  0.00    +0.000 OA
BRANCH 176 177
ATOM    177  C   UNL     1     -16.636  17.190  15.240  0.00  0.00    +0.000 C 
BRANCH 177 178
ATOM    178  C   UNL     1     -15.473  17.966  14.635  0.00  0.00    +0.000 C 
BRANCH 178 179
ATOM    179  O   UNL     1     -15.094  17.372  13.406  0.00  0.00    +0.000 OA
BRANCH 179 180
ATOM    180  C   UNL     1     -13.708  16.938  13.391  0.00  0.00    +0.000 C 
BRANCH 180 181
ATOM    181  C   UNL     1     -12.985  17.472  14.628  0.00  0.00    +0.000 C 
BRANCH 181 182
ATOM    182  O   UNL     1     -11.941  18.328  14.253  0.00  0.00    +0.000 OA
BRANCH 182 183
ATOM    183  C   UNL     1     -10.803  17.604  13.668  0.00  0.00    +0.000 C 
BRANCH 183 184
ATOM    184  C   UNL     1     -10.044  16.735  14.671  0.00  0.00    +0.000 C 
BRANCH 184 185
ATOM    185  O   UNL     1      -9.049  17.538  15.219  0.00  0.00    +0.000 OA
BRANCH 185 186
ATOM    186  C   UNL     1      -8.118  16.797  16.026  0.00  0.00    +0.000 C 
BRANCH 186 187
ATOM    187  C   UNL     1      -6.768  17.477  16.041  0.00  0.00    +0.000 C 
BRANCH 187 188
ATOM    188  O   UNL     1      -5.831  16.526  15.382  0.00  0.00    +0.000 OA
BRANCH 188 189
ATOM    189  C   UNL     1      -5.415  17.050  14.104  0.00  0.00    +0.000 C 
BRANCH 189 191
ATOM    190  O   UNL     1      -7.124  16.302  12.645  0.00  0.00    +0.000 OA
ATOM    191  C   UNL     1      -5.824  16.038  13.057  0.00  0.00    +0.000 C 
ENDBRANCH 189 191
ENDBRANCH 188 189
ENDBRANCH 187 188
ENDBRANCH 186 187
ENDBRANCH 185 186
ENDBRANCH 184 185
ENDBRANCH 183 184
ENDBRANCH 182 183
ENDBRANCH 181 182
ENDBRANCH 180 181
ENDBRANCH 179 180
ENDBRANCH 178 179
ENDBRANCH 177 178
ENDBRANCH 176 177
ENDBRANCH 175 176
ENDBRANCH 174 175
ENDBRANCH 173 174
ENDBRANCH 172 173
ENDBRANCH 171 172
ENDBRANCH 170 171
ENDBRANCH 169 170
ENDBRANCH 168 169
ENDBRANCH 167 168
ENDBRANCH 166 167
ENDBRANCH 165 166
ENDBRANCH 164 165
ENDBRANCH 163 164
ENDBRANCH 162 163
ENDBRANCH 161 162
ENDBRANCH  99 161
ENDBRANCH  97  98
BRANCH  97 192
ATOM    192  C   UNL     1     -13.437  11.431  30.071  0.00  0.00    +0.000 C 
BRANCH 192 193
ATOM    193  C   UNL     1     -13.902  11.320  31.432  0.00  0.00    +0.000 C 
ATOM    194  C   UNL     1     -14.969  12.163  31.948  0.00  0.00    +0.000 C 
BRANCH 193 195
ATOM    195  C   UNL     1     -13.307  10.362  32.383  0.00  0.00    +0.000 C 
ATOM    196  C   UNL     1     -11.787  10.400  32.153  0.00  0.00    +0.000 C 
ATOM    197  C   UNL     1     -13.540  10.794  33.836  0.00  0.00    +0.000 C 
BRANCH 195 198
ATOM    198  C   UNL     1     -13.897   8.879  32.132  0.00  0.00    +0.000 C 
ATOM    199  C   UNL     1     -13.595   8.393  30.783  0.00  0.00    +0.000 C 
ATOM    200  C   UNL     1     -15.375   8.861  32.353  0.00  0.00    +0.000 C 
BRANCH 198 201
ATOM    201  C   UNL     1     -13.410   7.712  33.072  0.00  0.00    +0.000 C 
ATOM    202  C   UNL     1     -14.442   6.643  33.269  0.00  0.00    +0.000 C 
ATOM    203  C   UNL     1     -13.074   8.192  34.458  0.00  0.00    +0.000 C 
ATOM    204  C   UNL     1     -12.285   7.019  32.465  0.00  0.00    +0.000 C 
ENDBRANCH 198 201
ENDBRANCH 195 198
ENDBRANCH 193 195
ENDBRANCH 192 193
ENDBRANCH  97 192
ENDBRANCH   1  97
BRANCH   1 205
ATOM    205  O   UNL     1     -13.131  12.807  27.130  0.00  0.00    +0.000 OA
BRANCH 205 206
ATOM    206  C   UNL     1     -12.719  13.967  27.817  0.00  0.00    +0.000 C 
BRANCH 206 207
ATOM    207  C   UNL     1     -12.421  15.097  26.874  0.00  0.00    +0.000 C 
BRANCH 207 208
ATOM    208  O   UNL     1     -11.076  15.025  26.385  0.00  0.00    +0.000 OA
BRANCH 208 209
ATOM    209  C   UNL     1     -10.140  14.515  27.359  0.00  0.00    +0.000 C 
BRANCH 209 210
ATOM    210  C   UNL     1      -8.725  14.854  26.963  0.00  0.00    +0.000 C 
BRANCH 210 211
ATOM    211  C   UNL     1      -7.917  15.487  28.096  0.00  0.00    +0.000 C 
BRANCH 211 212
ATOM    212  C   UNL     1      -6.809  16.366  27.557  0.00  0.00    +0.000 C 
BRANCH 212 213
ATOM    213  C   UNL     1      -6.603  17.562  28.428  0.00  0.00    +0.000 C 
BRANCH 213 214
ATOM    214  O   UNL     1      -5.848  18.505  27.820  0.00  0.00    +0.000 OA
BRANCH 214 215
ATOM    215  C   UNL     1      -4.644  17.945  27.227  0.00  0.00    +0.000 C 
BRANCH 215 216
ATOM    216  C   UNL     1      -4.333  18.543  25.871  0.00  0.00    +0.000 C 
BRANCH 216 217
ATOM    217  O   UNL     1      -5.021  17.892  24.900  0.00  0.00    +0.000 OA
BRANCH 217 218
ATOM    218  C   UNL     1      -5.808  18.348  23.717  0.00  0.00    +0.000 C 
BRANCH 218 219
ATOM    219  C   UNL     1      -6.952  19.242  24.302  0.00  0.00    +0.000 C 
BRANCH 219 220
ATOM    220  O   UNL     1      -7.811  18.490  25.074  0.00  0.00    +0.000 OA
BRANCH 220 221
ATOM    221  C   UNL     1      -8.763  19.220  25.868  0.00  0.00    +0.000 C 
BRANCH 221 222
ATOM    222  C   UNL     1      -9.928  18.299  26.221  0.00  0.00    +0.000 C 
BRANCH 222 223
ATOM    223  O   UNL     1     -10.138  18.238  27.609  0.00  0.00    +0.000 OA
BRANCH 223 224
ATOM    224  C   UNL     1     -11.462  18.535  28.012  0.00  0.00    +0.000 C 
BRANCH 224 225
ATOM    225  C   UNL     1     -11.639  17.997  29.436  0.00  0.00    +0.000 C 
BRANCH 225 226
ATOM    226  O   UNL     1     -10.836  16.839  29.644  0.00  0.00    +0.000 OA
BRANCH 226 227
ATOM    227  C   UNL     1     -11.253  16.062  30.752  0.00  0.00    +0.000 C 
BRANCH 227 228
ATOM    228  C   UNL     1     -10.129  15.132  31.134  0.00  0.00    +0.000 C 
BRANCH 228 229
ATOM    229  O   UNL     1     -10.326  14.542  32.390  0.00  0.00    +0.000 OA
BRANCH 229 230
ATOM    230  C   UNL     1      -9.151  13.986  32.917  0.00  0.00    +0.000 C 
BRANCH 230 231
ATOM    231  C   UNL     1      -7.945  14.577  32.253  0.00  0.00    +0.000 C 
BRANCH 231 232
ATOM    232  O   UNL     1      -7.057  15.041  33.240  0.00  0.00    +0.000 OA
BRANCH 232 233
ATOM    233  C   UNL     1      -6.892  16.441  33.229  0.00  0.00    +0.000 C 
BRANCH 233 234
ATOM    234  C   UNL     1      -5.509  16.810  33.719  0.00  0.00    +0.000 C 
ATOM    235  O   UNL     1      -5.275  18.174  33.449  0.00  0.00    +0.000 OA
ENDBRANCH 233 234
ENDBRANCH 232 233
ENDBRANCH 231 232
ENDBRANCH 230 231
ENDBRANCH 229 230
ENDBRANCH 228 229
ENDBRANCH 227 228
ENDBRANCH 226 227
ENDBRANCH 225 226
ENDBRANCH 224 225
ENDBRANCH 223 224
ENDBRANCH 222 223
ENDBRANCH 221 222
ENDBRANCH 220 221
ENDBRANCH 219 220
ENDBRANCH 218 219
ENDBRANCH 217 218
ENDBRANCH 216 217
ENDBRANCH 215 216
ENDBRANCH 214 215
ENDBRANCH 213 214
ENDBRANCH 212 213
ENDBRANCH 211 212
ENDBRANCH 210 211
ENDBRANCH 209 210
ENDBRANCH 208 209
ENDBRANCH 207 208
ENDBRANCH 206 207
ENDBRANCH 205 206
ENDBRANCH   1 205
TORSDOF 175
BEGIN_RES LEU A  10
REMARK  2 active torsions:
REMARK  status: ('A' for Active; 'I' for Inactive)
REMARK    1  A    between atoms: CA   and  CB  
REMARK    2  A    between atoms: CB   and  CG  
ROOT
ATOM      1  CA  LEU A  10     -10.775  -4.871   5.898  1.00 25.14     0.177 C 
ENDROOT
BRANCH   1   2
ATOM      2  CB  LEU A  10     -12.191  -4.387   6.226  1.00 17.87     0.038 C 
BRANCH   2   3
ATOM      3  CG  LEU A  10     -12.387  -2.875   6.102  1.00 24.95    -0.020 C 
ATOM      4  CD2 LEU A  10     -12.527  -2.289   7.466  1.00 26.38     0.009 C 
ATOM      5  CD1 LEU A  10     -13.606  -2.553   5.254  1.00 28.12     0.009 C 
ENDBRANCH   2   3
ENDBRANCH   1   2
END_RES LEU A  10
BEGIN_RES CYS A  12
REMARK  2 active torsions:
REMARK  status: ('A' for Active; 'I' for Inactive)
REMARK    3  A    between atoms: CA   and  CB  
REMARK    4  A    between atoms: CB   and  SG  
ROOT
ATOM      6  CA  CYS A  12      -8.555   0.470   8.750  1.00 23.16     0.185 C 
ENDROOT
BRANCH   6   7
ATOM      7  CB  CYS A  12      -9.828   0.763   9.555  1.00 20.43     0.105 C 
BRANCH   7   8
ATOM      8  SG  CYS A  12     -11.312   1.172   8.585  1.00 24.64    -0.180 SA
ATOM      9  H04 CYS A  12     -11.661   0.118   7.836  1.00 24.64     0.101 HD
ENDBRANCH   7   8
ENDBRANCH   6   7
END_RES CYS A  12
BEGIN_RES GLN A  14
REMARK  3 active torsions:
REMARK  status: ('A' for Active; 'I' for Inactive)
REMARK    5  A    between atoms: CA   and  CB  
REMARK    6  A    between atoms: CB   and  CG  
REMARK    7  A    between atoms: CG   and  CD  
REMARK       I    between atoms: CD   and  NE2 
ROOT
ATOM     10  CA  GLN A  14      -4.645   5.402  11.377  1.00 10.43     0.177 C 
ENDROOT
BRANCH  10  11
ATOM     11  CB  GLN A  14      -5.541   5.549  12.608  1.00 14.45     0.044 C 
BRANCH  11  12
ATOM     12  CG  GLN A  14      -6.699   6.502  12.418  1.00 13.74     0.105 C 
BRANCH  12  13
ATOM     13  CD  GLN A  14      -6.389   7.893  12.915  1.00 16.29     0.215 C 
ATOM     14  NE2 GLN A  14      -5.920   8.742  12.027  1.00  8.57    -0.370 N 
ATOM     15  H06 GLN A  14      -5.696   9.688  12.301  1.00  8.57     0.159 HD
ATOM     16  H07 GLN A  14      -5.784   8.449  11.070  1.00  8.57     0.159 HD
ATOM     17  OE1 GLN A  14      -6.572   8.201  14.083  1.00 23.55    -0.274 OA
ENDBRANCH  12  13
ENDBRANCH  11  12
ENDBRANCH  10  11
END_RES GLN A  14
BEGIN_RES SER A  16
REMARK  2 active torsions:
REMARK  status: ('A' for Active; 'I' for Inactive)
REMARK    8  A    between atoms: CA   and  CB  
REMARK    9  A    between atoms: CB   and  OG  
ROOT
ATOM     18  CA  SER A  16      -1.305  10.019  14.282  1.00  2.34     0.200 C 
ENDROOT
BRANCH  18  19
ATOM     19  CB  SER A  16      -2.242   9.935  15.479  1.00  3.12     0.199 C 
BRANCH  19  20
ATOM     20  OG  SER A  16      -1.944   8.790  16.258  1.00  1.00    -0.398 OA
ATOM     21  H04 SER A  16      -1.005   8.773  16.456  1.00  1.00     0.209 HD
ENDBRANCH  19  20
ENDBRANCH  18  19
END_RES SER A  16
BEGIN_RES LEU A  32
REMARK  2 active torsions:
REMARK  status: ('A' for Active; 'I' for Inactive)
REMARK   10  A    between atoms: CA   and  CB  
REMARK   11  A    between atoms: CB   and  CG  
ROOT
ATOM     22  CA  LEU A  32     -10.272  -4.106   1.587  1.00 16.16     0.177 C 
ENDROOT
BRANCH  22  23
ATOM     23  CB  LEU A  32     -11.613  -3.858   0.880  1.00 12.35     0.038 C 
BRANCH  23  24
ATOM     24  CG  LEU A  32     -12.623  -4.993   1.149  1.00  9.77    -0.020 C 
ATOM     25  CD1 LEU A  32     -13.080  -4.959   2.588  1.00  4.35     0.009 C 
ATOM     26  CD2 LEU A  32     -13.814  -4.880   0.234  1.00 10.60     0.009 C 
ENDBRANCH  23  24
ENDBRANCH  22  23
END_RES LEU A  32
BEGIN_RES HIS A  38
REMARK  2 active torsions:
REMARK  status: ('A' for Active; 'I' for Inactive)
REMARK   12  A    between atoms: CA   and  CB  
REMARK   13  A    between atoms: CB   and  CG  
ROOT
ATOM     27  CA  HIS A  38     -10.959   4.941   1.621  1.00 16.94     0.182 C 
ENDROOT
BRANCH  27  28
ATOM     28  CB  HIS A  38     -11.810   4.840   2.881  1.00 15.47     0.095 C 
BRANCH  28  29
ATOM     29  CG  HIS A  38     -13.141   4.197   2.661  1.00 18.62     0.053 A 
ATOM     30  CD2 HIS A  38     -13.573   2.939   2.913  1.00 15.06     0.116 A 
ATOM     31  NE2 HIS A  38     -14.894   2.886   2.548  1.00 18.12    -0.359 N 
ATOM     32  CE1 HIS A  38     -15.261   4.067   2.088  1.00 14.78     0.207 A 
ATOM     33  H06 HIS A  38     -15.490   2.074   2.620  1.00 18.12     0.166 HD
ATOM     34  ND1 HIS A  38     -14.222   4.876   2.143  1.00 16.58    -0.247 NA
ENDBRANCH  28  29
ENDBRANCH  27  28
END_RES HIS A  38
BEGIN_RES TRP A  63
REMARK  2 active torsions:
REMARK  status: ('A' for Active; 'I' for Inactive)
REMARK   14  A    between atoms: CA   and  CB  
REMARK   15  A    between atoms: CB   and  CG  
ROOT
ATOM     35  CA  TRP A  63     -22.437   6.257   6.543  1.00 27.04     0.181 C 
ENDROOT
BRANCH  35  36
ATOM     36  CB  TRP A  63     -22.360   6.642   5.068  1.00 31.37     0.075 C 
BRANCH  36  37
ATOM     37  CG  TRP A  63     -20.953   6.745   4.517  1.00 34.37    -0.028 A 
ATOM     38  CD2 TRP A  63     -19.857   5.853   4.765  1.00 33.79    -0.002 A 
ATOM     39  CE3 TRP A  63     -19.687   4.720   5.563  1.00 32.99     0.014 A 
ATOM     40  CE2 TRP A  63     -18.769   6.304   3.987  1.00 35.84     0.042 A 
ATOM     41  CZ3 TRP A  63     -18.455   4.082   5.562  1.00 32.93     0.001 A 
ATOM     42  CH2 TRP A  63     -17.391   4.555   4.778  1.00 39.24     0.002 A 
ATOM     43  CZ2 TRP A  63     -17.529   5.663   3.984  1.00 37.99     0.030 A 
ATOM     44  NE1 TRP A  63     -19.187   7.414   3.305  1.00 37.98    -0.365 N 
ATOM     45  H06 TRP A  63     -18.624   7.957   2.666  1.00 37.98     0.165 HD
ATOM     46  CD1 TRP A  63     -20.497   7.670   3.632  1.00 38.16     0.096 A 
ENDBRANCH  36  37
ENDBRANCH  35  36
END_RES TRP A  63
BEGIN_RES LEU A  66
REMARK  2 active torsions:
REMARK  status: ('A' for Active; 'I' for Inactive)
REMARK   16  A    between atoms: CA   and  CB  
REMARK   17  A    between atoms: CB   and  CG  
ROOT
ATOM     47  CA  LEU A  66     -20.004   6.489  11.120  1.00 10.90     0.177 C 
ENDROOT
BRANCH  47  48
ATOM     48  CB  LEU A  66     -19.626   5.453  10.069  1.00 13.57     0.038 C 
BRANCH  48  49
ATOM     49  CG  LEU A  66     -18.330   4.673  10.290  1.00  8.73    -0.020 C 
ATOM     50  CD1 LEU A  66     -18.448   3.279   9.731  1.00 14.23     0.009 C 
ATOM     51  CD2 LEU A  66     -17.207   5.411   9.607  1.00  1.92     0.009 C 
ENDBRANCH  48  49
ENDBRANCH  47  48
END_RES LEU A  66
BEGIN_RES PHE A  70
REMARK  2 active torsions:
REMARK  status: ('A' for Active; 'I' for Inactive)
REMARK   18  A    between atoms: CA   and  CB  
REMARK   19  A    between atoms: CB   and  CG  
ROOT
ATOM     52  CA  PHE A  70     -14.974   9.434  13.165  1.00  8.78     0.180 C 
ENDROOT
BRANCH  52  53
ATOM     53  CB  PHE A  70     -14.707   9.132  11.681  1.00  6.33     0.073 C 
BRANCH  53  54
ATOM     54  CG  PHE A  70     -13.950   7.851  11.458  1.00  3.42    -0.056 A 
ATOM     55  CD1 PHE A  70     -13.434   7.130  12.524  1.00 13.88     0.007 A 
ATOM     56  CE1 PHE A  70     -12.687   5.959  12.306  1.00 12.71     0.001 A 
ATOM     57  CZ  PHE A  70     -12.456   5.506  11.007  1.00  4.21     0.000 A 
ATOM     58  CE2 PHE A  70     -12.967   6.215   9.936  1.00  2.83     0.001 A 
ATOM     59  CD2 PHE A  70     -13.712   7.384  10.164  1.00  1.00     0.007 A 
ENDBRANCH  53  54
ENDBRANCH  52  53
END_RES PHE A  70
BEGIN_RES TYR A  73
REMARK  3 active torsions:
REMARK  status: ('A' for Active; 'I' for Inactive)
REMARK   20  A    between atoms: CA   and  CB  
REMARK   21  A    between atoms: CB   and  CG  
REMARK   22  A    between atoms: CZ   and  OH  
ROOT
ATOM     60  CA  TYR A  73     -13.212  10.166  17.260  1.00 12.17     0.180 C 
ENDROOT
BRANCH  60  61
ATOM     61  CB  TYR A  73     -13.301   8.846  16.517  1.00 12.84     0.073 C 
BRANCH  61  62
ATOM     62  CG  TYR A  73     -12.039   8.058  16.574  1.00 15.89    -0.056 A 
ATOM     63  CD1 TYR A  73     -11.376   7.694  15.424  1.00 16.00     0.010 A 
ATOM     64  CE1 TYR A  73     -10.210   6.929  15.473  1.00 13.55     0.037 A 
ATOM     65  CZ  TYR A  73      -9.714   6.530  16.699  1.00 18.13     0.065 A 
ATOM     66  CE2 TYR A  73     -10.357   6.882  17.863  1.00 15.89     0.037 A 
ATOM     67  CD2 TYR A  73     -11.517   7.644  17.794  1.00 21.86     0.010 A 
BRANCH  65  68
ATOM     68  OH  TYR A  73      -8.565   5.782  16.772  1.00 12.12    -0.361 OA
ATOM     69  H08 TYR A  73      -8.736   4.899  16.435  1.00 12.12     0.217 HD
ENDBRANCH  65  68
ENDBRANCH  61  62
ENDBRANCH  60  61
END_RES TYR A  73
BEGIN_RES PHE A  77
REMARK  2 active torsions:
REMARK  status: ('A' for Active; 'I' for Inactive)
REMARK   23  A    between atoms: CA   and  CB  
REMARK   24  A    between atoms: CB   and  CG  
ROOT
ATOM     70  CA  PHE A  77      -8.400  10.581  20.110  1.00 17.17     0.180 C 
ENDROOT
BRANCH  70  71
ATOM     71  CB  PHE A  77      -8.228   9.750  18.851  1.00 10.44     0.073 C 
BRANCH  71  72
ATOM     72  CG  PHE A  77      -6.889   9.090  18.743  1.00  6.07    -0.056 A 
ATOM     73  CD2 PHE A  77      -6.732   7.767  19.088  1.00  9.61     0.007 A 
ATOM     74  CE2 PHE A  77      -5.493   7.145  18.989  1.00  1.00     0.001 A 
ATOM     75  CZ  PHE A  77      -4.396   7.857  18.535  1.00  1.92     0.000 A 
ATOM     76  CE1 PHE A  77      -4.537   9.181  18.184  1.00  9.25     0.001 A 
ATOM     77  CD1 PHE A  77      -5.786   9.793  18.290  1.00  9.63     0.007 A 
ENDBRANCH  71  72
ENDBRANCH  70  71
END_RES PHE A  77
BEGIN_RES LEU A  96
REMARK  2 active torsions:
REMARK  status: ('A' for Active; 'I' for Inactive)
REMARK   25  A    between atoms: CA   and  CB  
REMARK   26  A    between atoms: CB   and  CG  
ROOT
ATOM     78  CA  LEU A  96       0.717   6.481  17.359  1.00 16.08     0.177 C 
ENDROOT
BRANCH  78  79
ATOM     79  CB  LEU A  96      -0.370   7.101  18.230  1.00 18.83     0.038 C 
BRANCH  79  80
ATOM     80  CG  LEU A  96      -0.093   7.038  19.732  1.00 19.03    -0.020 C 
ATOM     81  CD1 LEU A  96      -1.195   7.769  20.462  1.00 28.17     0.009 C 
ATOM     82  CD2 LEU A  96      -0.076   5.603  20.205  1.00 22.01     0.009 C 
ENDBRANCH  79  80
ENDBRANCH  78  79
END_RES LEU A  96
BEGIN_RES VAL A  98
REMARK  1 active torsions:
REMARK  status: ('A' for Active; 'I' for Inactive)
REMARK   27  A    between atoms: CA   and  CB  
ROOT
ATOM     83  CA  VAL A  98      -3.928   2.082  14.897  1.00 19.83     0.180 C 
ENDROOT
BRANCH  83  84
ATOM     84  CB  VAL A  98      -5.203   2.807  15.281  1.00 17.87     0.009 C 
ATOM     85  CG2 VAL A  98      -4.888   3.950  16.210  1.00 29.90     0.012 C 
ATOM     86  CG1 VAL A  98      -6.162   1.834  15.933  1.00 14.79     0.012 C 
ENDBRANCH  83  84
END_RES VAL A  98
BEGIN_RES ASN A 112
REMARK  2 active torsions:
REMARK  status: ('A' for Active; 'I' for Inactive)
REMARK   28  A    between atoms: CA   and  CB  
REMARK   29  A    between atoms: CB   and  CG  
REMARK       I    between atoms: CG   and  ND2 
ROOT
ATOM     87  CA  ASN A 112     -11.790  -8.793  14.069  1.00 37.70     0.185 C 
ENDROOT
BRANCH  87  88
ATOM     88  CB  ASN A 112     -12.992  -7.945  14.465  1.00 26.24     0.137 C 
BRANCH  88  89
ATOM     89  CG  ASN A 112     -13.800  -8.552  15.590  1.00 21.77     0.217 C 
ATOM     90  ND2 ASN A 112     -14.943  -9.143  15.240  1.00  9.31    -0.370 N 
ATOM     91  H04 ASN A 112     -15.529  -9.566  15.946  1.00  9.31     0.159 HD
ATOM     92  H05 ASN A 112     -15.222  -9.168  14.270  1.00  9.31     0.159 HD
ATOM     93  OD1 ASN A 112     -13.409  -8.488  16.761  1.00 21.61    -0.274 OA
ENDBRANCH  88  89
ENDBRANCH  87  88
END_RES ASN A 112
BEGIN_RES PHE A 114
REMARK  2 active torsions:
REMARK  status: ('A' for Active; 'I' for Inactive)
REMARK   30  A    between atoms: CA   and  CB  
REMARK   31  A    between atoms: CB   and  CG  
ROOT
ATOM     94  CA  PHE A 114      -7.754  -3.619  17.012  1.00 26.06     0.180 C 
ENDROOT
BRANCH  94  95
ATOM     95  CB  PHE A 114      -8.890  -3.080  17.867  1.00 19.95     0.073 C 
BRANCH  95  96
ATOM     96  CG  PHE A 114      -8.708  -1.650  18.261  1.00 17.65    -0.056 A 
ATOM     97  CD1 PHE A 114      -8.693  -1.276  19.602  1.00 13.01     0.007 A 
ATOM     98  CE1 PHE A 114      -8.553   0.056  19.968  1.00  6.74     0.001 A 
ATOM     99  CZ  PHE A 114      -8.422   1.038  18.991  1.00  6.27     0.000 A 
ATOM    100  CE2 PHE A 114      -8.434   0.678  17.653  1.00 17.36     0.001 A 
ATOM    101  CD2 PHE A 114      -8.577  -0.666  17.291  1.00 18.39     0.007 A 
ENDBRANCH  95  96
ENDBRANCH  94  95
END_RES PHE A 114
BEGIN_RES VAL A 116
REMARK  1 active torsions:
REMARK  status: ('A' for Active; 'I' for Inactive)
REMARK   32  A    between atoms: CA   and  CB  
ROOT
ATOM    102  CA  VAL A 116      -2.467   0.283  18.565  1.00 13.48     0.180 C 
ENDROOT
BRANCH 102 103
ATOM    103  CB  VAL A 116      -3.101   1.238  19.599  1.00 20.86     0.009 C 
ATOM    104  CG1 VAL A 116      -2.218   2.479  19.758  1.00 25.01     0.012 C 
ATOM    105  CG2 VAL A 116      -4.511   1.605  19.199  1.00 25.34     0.012 C 
ENDBRANCH 102 103
END_RES VAL A 116
BEGIN_RES ILE A 123
REMARK  2 active torsions:
REMARK  status: ('A' for Active; 'I' for Inactive)
REMARK   33  A    between atoms: CA   and  CB  
REMARK   34  A    between atoms: CB   and  CG1 
ROOT
ATOM    106  CA  ILE A 123       1.557  -1.626  23.222  1.00 15.07     0.180 C 
ENDROOT
BRANCH 106 107
ATOM    107  CB  ILE A 123       1.697  -0.112  23.461  1.00 14.41     0.013 C 
ATOM    108  CG2 ILE A 123       3.120   0.216  23.879  1.00 18.35     0.012 C 
BRANCH 107 109
ATOM    109  CG1 ILE A 123       1.327   0.661  22.198  1.00 15.23     0.002 C 
ATOM    110  CD1 ILE A 123       0.232   1.678  22.409  1.00 14.67     0.005 C 
ENDBRANCH 107 109
ENDBRANCH 106 107
END_RES ILE A 123
BEGIN_RES LEU A 124
REMARK  2 active torsions:
REMARK  status: ('A' for Active; 'I' for Inactive)
REMARK   35  A    between atoms: CA   and  CB  
REMARK   36  A    between atoms: CB   and  CG  
ROOT
ATOM    111  CA  LEU A 124      -2.057  -2.686  23.524  1.00 11.86     0.177 C 
ENDROOT
BRANCH 111 112
ATOM    112  CB  LEU A 124      -2.698  -1.652  24.429  1.00 14.60     0.038 C 
BRANCH 112 113
ATOM    113  CG  LEU A 124      -2.566  -0.243  23.871  1.00 16.19    -0.020 C 
ATOM    114  CD1 LEU A 124      -3.917   0.188  23.270  1.00 22.07     0.009 C 
ATOM    115  CD2 LEU A 124      -2.114   0.691  24.965  1.00  9.12     0.009 C 
ENDBRANCH 112 113
ENDBRANCH 111 112
END_RES LEU A 124
BEGIN_RES PHE A 126
REMARK  2 active torsions:
REMARK  status: ('A' for Active; 'I' for Inactive)
REMARK   37  A    between atoms: CA   and  CB  
REMARK   38  A    between atoms: CB   and  CG  
ROOT
ATOM    116  CA  PHE A 126      -8.784  -4.792  22.233  1.00 23.15     0.180 C 
ENDROOT
BRANCH 116 117
ATOM    117  CB  PHE A 126      -9.823  -4.011  21.461  1.00 20.65     0.073 C 
BRANCH 117 118
ATOM    118  CG  PHE A 126     -10.950  -3.543  22.297  1.00 23.65    -0.056 A 
ATOM    119  CD2 PHE A 126     -10.773  -2.517  23.209  1.00 36.63     0.007 A 
ATOM    120  CE2 PHE A 126     -11.842  -2.073  23.999  1.00 36.27     0.001 A 
ATOM    121  CZ  PHE A 126     -13.090  -2.665  23.870  1.00 18.06     0.000 A 
ATOM    122  CE1 PHE A 126     -13.270  -3.687  22.960  1.00  5.50     0.001 A 
ATOM    123  CD1 PHE A 126     -12.201  -4.120  22.175  1.00 15.29     0.007 A 
ENDBRANCH 117 118
ENDBRANCH 116 117
END_RES PHE A 126
BEGIN_RES TRP A 131
REMARK  2 active torsions:
REMARK  status: ('A' for Active; 'I' for Inactive)
REMARK   39  A    between atoms: CA   and  CB  
REMARK   40  A    between atoms: CB   and  CG  
ROOT
ATOM    124  CA  TRP A 131      -8.096  -3.335  26.542  1.00 14.52     0.181 C 
ENDROOT
BRANCH 124 125
ATOM    125  CB  TRP A 131      -7.651  -1.877  26.607  1.00 13.06     0.075 C 
BRANCH 125 126
ATOM    126  CG  TRP A 131      -7.940  -1.083  25.352  1.00 16.97    -0.028 A 
ATOM    127  CD2 TRP A 131      -8.976  -0.113  25.178  1.00 11.34    -0.002 A 
ATOM    128  CE2 TRP A 131      -8.876   0.381  23.862  1.00  5.87     0.042 A 
ATOM    129  CE3 TRP A 131      -9.983   0.386  26.012  1.00  3.80     0.014 A 
ATOM    130  CZ2 TRP A 131      -9.743   1.353  23.361  1.00  1.35     0.030 A 
ATOM    131  NE1 TRP A 131      -7.827  -0.260  23.261  1.00 13.90    -0.365 N 
ATOM    132  CH2 TRP A 131     -10.721   1.825  24.202  1.00  1.00     0.002 A 
ATOM    133  CZ3 TRP A 131     -10.847   1.347  25.520  1.00  1.00     0.001 A 
ATOM    134  CD1 TRP A 131      -7.269  -1.137  24.161  1.00 17.22     0.096 A 
ATOM    135  H07 TRP A 131      -7.514  -0.113  22.312  1.00 13.90     0.165 HD
ENDBRANCH 125 126
ENDBRANCH 124 125
END_RES TRP A 131
BEGIN_RES LEU A 148
REMARK  2 active torsions:
REMARK  status: ('A' for Active; 'I' for Inactive)
REMARK   41  A    between atoms: CA   and  CB  
REMARK   42  A    between atoms: CB   and  CG  
ROOT
ATOM    136  CA  LEU A 148      -9.018   3.259  29.295  1.00 16.99     0.177 C 
ENDROOT
BRANCH 136 137
ATOM    137  CB  LEU A 148      -8.166   2.574  28.236  1.00  6.39     0.038 C 
BRANCH 137 138
ATOM    138  CG  LEU A 148      -7.230   3.370  27.350  1.00  1.00    -0.020 C 
ATOM    139  CD2 LEU A 148      -5.874   2.727  27.314  1.00  1.00     0.009 C 
ATOM    140  CD1 LEU A 148      -7.137   4.781  27.903  1.00  2.71     0.009 C 
ENDBRANCH 137 138
ENDBRANCH 136 137
END_RES LEU A 148
BEGIN_RES THR A 154
REMARK  2 active torsions:
REMARK  status: ('A' for Active; 'I' for Inactive)
REMARK   43  A    between atoms: CA   and  CB  
REMARK   44  A    between atoms: CB   and  OG1 
ROOT
ATOM    141  CA  THR A 154     -15.990   3.959  24.426  1.00 20.45     0.205 C 
ENDROOT
BRANCH 141 142
ATOM    142  CB  THR A 154     -14.777   4.829  24.694  1.00 16.79     0.146 C 
ATOM    143  CG2 THR A 154     -13.574   3.964  25.018  1.00 20.24     0.042 C 
BRANCH 142 144
ATOM    144  OG1 THR A 154     -14.490   5.600  23.521  1.00 18.84    -0.393 OA
ATOM    145  H06 THR A 154     -15.138   6.303  23.433  1.00 18.84     0.210 HD
ENDBRANCH 142 144
ENDBRANCH 141 142
END_RES THR A 154
BEGIN_RES VAL A 158
REMARK  1 active torsions:
REMARK  status: ('A' for Active; 'I' for Inactive)
REMARK   45  A    between atoms: CA   and  CB  
ROOT
ATOM    146  CA  VAL A 158     -15.487  -0.189  19.892  1.00 15.49     0.180 C 
ENDROOT
BRANCH 146 147
ATOM    147  CB  VAL A 158     -14.291  -0.273  20.822  1.00  6.52     0.009 C 
ATOM    148  CG1 VAL A 158     -14.677  -0.903  22.141  1.00  1.00     0.012 C 
ATOM    149  CG2 VAL A 158     -13.215  -1.069  20.150  1.00  5.99     0.012 C 
ENDBRANCH 146 147
END_RES VAL A 158
BEGIN_RES LEU A 161
REMARK  2 active torsions:
REMARK  status: ('A' for Active; 'I' for Inactive)
REMARK   46  A    between atoms: CA   and  CB  
REMARK   47  A    between atoms: CB   and  CG  
ROOT
ATOM    150  CA  LEU A 161     -18.031  -1.858  15.935  1.00 13.31     0.177 C 
ENDROOT
BRANCH 150 151
ATOM    151  CB  LEU A 161     -17.046  -0.706  16.001  1.00 14.13     0.038 C 
BRANCH 151 152
ATOM    152  CG  LEU A 161     -17.446   0.567  15.266  1.00 19.39    -0.020 C 
ATOM    153  CD2 LEU A 161     -18.690   1.158  15.884  1.00 27.75     0.009 C 
ATOM    154  CD1 LEU A 161     -17.697   0.235  13.819  1.00 18.59     0.009 C 
ENDBRANCH 151 152
ENDBRANCH 150 151
END_RES LEU A 161
BEGIN_RES GLN A 168
REMARK  3 active torsions:
REMARK  status: ('A' for Active; 'I' for Inactive)
REMARK   48  A    between atoms: CA   and  CB  
REMARK   49  A    between atoms: CB   and  CG  
REMARK   50  A    between atoms: CG   and  CD  
REMARK       I    between atoms: CD   and  NE2 
ROOT
ATOM    155  CA  GLN A 168     -22.035  -6.020   8.155  1.00 30.94     0.177 C 
ENDROOT
BRANCH 155 156
ATOM    156  CB  GLN A 168     -23.054  -5.218   8.946  1.00 41.76     0.044 C 
BRANCH 156 157
ATOM    157  CG  GLN A 168     -24.487  -5.589   8.674  1.00 61.20     0.105 C 
BRANCH 157 158
ATOM    158  CD  GLN A 168     -25.197  -4.533   7.849  1.00 75.49     0.215 C 
ATOM    159  NE2 GLN A 168     -26.203  -3.894   8.448  1.00 85.00    -0.370 N 
ATOM    160  H06 GLN A 168     -26.718  -3.182   7.950  1.00 85.00     0.159 HD
ATOM    161  H07 GLN A 168     -26.451  -4.124   9.401  1.00 85.00     0.159 HD
ATOM    162  OE1 GLN A 168     -24.853  -4.295   6.683  1.00 73.64    -0.274 OA
ENDBRANCH 157 158
ENDBRANCH 156 157
ENDBRANCH 155 156
END_RES GLN A 168
ENDMDL
MODEL 3
REMARK VINA RESULT:      -5.6      1.563      3.757
REMARK  Name = human_CD1d_Tyloxapol_pred.rank_0
REMARK  175 active torsions:
REMARK  status: ('A' for Active; 'I' for Inactive)
REMARK    1  A    between atoms: C_1  and  C_3
REMARK    2  A    between atoms: C_3  and  O_4
REMARK    3  A    between atoms: O_4  and  C_5
REMARK    4  A    between atoms: C_5  and  C_7
REMARK    5  A    between atoms: O_6  and  C_7
REMARK    6  A    between atoms: O_6  and  C_9
REMARK    7  A    between atoms: O_8  and  C_11
REMARK    8  A    between atoms: O_8  and  C_13
REMARK    9  A    between atoms: C_9  and  C_11
REMARK   10  A    between atoms: O_10  and  C_15
REMARK   11  A    between atoms: O_10  and  C_17
REMARK   12  A    between atoms: O_12  and  C_19
REMARK   13  A    between atoms: O_12  and  C_21
REMARK   14  A    between atoms: C_13  and  C_15
REMARK   15  A    between atoms: O_14  and  C_23
REMARK   16  A    between atoms: O_14  and  C_25
REMARK   17  A    between atoms: O_16  and  C_27
REMARK   18  A    between atoms: O_16  and  C_29
REMARK   19  A    between atoms: C_17  and  C_19
REMARK   20  A    between atoms: O_18  and  C_37
REMARK   21  A    between atoms: O_18  and  C_39
REMARK   22  A    between atoms: O_20  and  C_41
REMARK   23  A    between atoms: O_20  and  C_43
REMARK   24  A    between atoms: C_21  and  C_23
REMARK   25  A    between atoms: O_22  and  C_49
REMARK   26  A    between atoms: O_22  and  C_51
REMARK   27  A    between atoms: O_24  and  C_53
REMARK   28  A    between atoms: O_24  and  C_55
REMARK   29  A    between atoms: C_25  and  C_27
REMARK   30  A    between atoms: O_26  and  C_57
REMARK   31  A    between atoms: O_26  and  C_59
REMARK   32  A    between atoms: O_28  and  C_61
REMARK   33  A    between atoms: O_28  and  C_63
REMARK   34  A    between atoms: C_29  and  C_31
REMARK   35  A    between atoms: O_30  and  C_65
REMARK   36  A    between atoms: O_30  and  C_67
REMARK   37  A    between atoms: C_31  and  C_33
REMARK   38  A    between atoms: O_32  and  C_69
REMARK   39  A    between atoms: O_32  and  C_71
REMARK   40  A    between atoms: C_33  and  C_35
REMARK   41  A    between atoms: O_34  and  C_73
REMARK   42  A    between atoms: O_34  and  C_75
REMARK   43  A    between atoms: C_35  and  C_37
REMARK   44  A    between atoms: O_36  and  C_77
REMARK   45  A    between atoms: O_36  and  C_79
REMARK   46  A    between atoms: O_38  and  C_81
REMARK   47  A    between atoms: O_38  and  C_83
REMARK   48  A    between atoms: C_39  and  C_41
REMARK   49  A    between atoms: O_40  and  C_85
REMARK   50  A    between atoms: O_40  and  C_87
REMARK   51  A    between atoms: C_43  and  C_45
REMARK   52  A    between atoms: C_43  and  C_163
REMARK   53  A    between atoms: O_44  and  C_116
REMARK   54  A    between atoms: O_44  and  C_117
REMARK   55  A    between atoms: C_45  and  C_47
REMARK   56  A    between atoms: C_45  and  C_150
REMARK   57  A    between atoms: O_46  and  C_118
REMARK   58  A    between atoms: O_46  and  C_119
REMARK   59  A    between atoms: O_48  and  C_120
REMARK   60  A    between atoms: O_48  and  C_121
REMARK   61  A    between atoms: O_50  and  C_122
REMARK   62  A    between atoms: O_50  and  C_123
REMARK   63  A    between atoms: C_51  and  C_53
REMARK   64  A    between atoms: O_52  and  C_124
REMARK   65  A    between atoms: O_52  and  C_125
REMARK   66  A    between atoms: O_54  and  C_126
REMARK   67  A    between atoms: O_54  and  C_127
REMARK   68  A    between atoms: C_55  and  C_57
REMARK   69  A    between atoms: O_56  and  C_128
REMARK   70  A    between atoms: O_56  and  C_129
REMARK   71  A    between atoms: O_58  and  C_130
REMARK   72  A    between atoms: O_58  and  C_131
REMARK   73  A    between atoms: C_59  and  C_61
REMARK   74  A    between atoms: O_60  and  C_132
REMARK   75  A    between atoms: O_60  and  C_133
REMARK   76  A    between atoms: O_62  and  C_134
REMARK   77  A    between atoms: O_62  and  C_135
REMARK   78  A    between atoms: C_63  and  C_65
REMARK   79  A    between atoms: O_66  and  C_180
REMARK   80  A    between atoms: O_66  and  C_181
REMARK   81  A    between atoms: C_67  and  C_69
REMARK   82  A    between atoms: O_68  and  C_182
REMARK   83  A    between atoms: O_68  and  C_183
REMARK   84  A    between atoms: O_70  and  C_184
REMARK   85  A    between atoms: O_70  and  C_185
REMARK   86  A    between atoms: C_71  and  C_73
REMARK   87  A    between atoms: O_72  and  C_186
REMARK   88  A    between atoms: O_72  and  C_187
REMARK   89  A    between atoms: O_74  and  C_188
REMARK   90  A    between atoms: O_74  and  C_189
REMARK   91  A    between atoms: C_75  and  C_77
REMARK   92  A    between atoms: O_76  and  C_190
REMARK   93  A    between atoms: O_76  and  C_191
REMARK   94  A    between atoms: O_78  and  C_192
REMARK   95  A    between atoms: O_78  and  C_193
REMARK   96  A    between atoms: C_79  and  C_81
REMARK   97  A    between atoms: O_80  and  C_194
REMARK   98  A    between atoms: O_80  and  C_195
REMARK   99  A    between atoms: O_82  and  C_196
REMARK  100  A    between atoms: O_82  and  C_197
REMARK  101  A    between atoms: C_83  and  C_85
REMARK  102  A    between atoms: O_84  and  C_198
REMARK  103  A    between atoms: O_84  and  C_199
REMARK  104  A    between atoms: C_87  and  C_89
REMARK  105  A    between atoms: O_88  and  C_215
REMARK  106  A    between atoms: O_88  and  C_216
REMARK  107  A    between atoms: O_90  and  C_217
REMARK  108  A    between atoms: O_90  and  C_218
REMARK  109  A    between atoms: O_92  and  C_219
REMARK  110  A    between atoms: O_92  and  C_220
REMARK  111  A    between atoms: O_94  and  C_221
REMARK  112  A    between atoms: O_94  and  C_222
REMARK  113  A    between atoms: O_96  and  C_223
REMARK  114  A    between atoms: O_96  and  C_224
REMARK  115  A    between atoms: C_97  and  C_99
REMARK  116  A    between atoms: O_98  and  C_225
REMARK  117  A    between atoms: O_98  and  C_226
REMARK  118  A    between atoms: C_99  and  C_105
REMARK  119  A    between atoms: O_100  and  C_227
REMARK  120  A    between atoms: O_100  and  C_228
REMARK  121  A    between atoms: O_102  and  C_229
REMARK  122  A    between atoms: O_102  and  C_230
REMARK  123  A    between atoms: O_104  and  C_231
REMARK  124  A    between atoms: O_104  and  C_232
REMARK  125  A    between atoms: C_105  and  C_107
REMARK  126  A    between atoms: O_106  and  C_233
REMARK  127  A    between atoms: O_106  and  C_234
REMARK  128  A    between atoms: C_117  and  C_118
REMARK  129  A    between atoms: C_119  and  C_120
REMARK  130  A    between atoms: C_121  and  C_122
REMARK  131  A    between atoms: C_123  and  C_124
REMARK  132  A    between atoms: C_125  and  C_126
REMARK  133  A    between atoms: C_127  and  C_128
REMARK  134  A    between atoms: C_129  and  C_130
REMARK  135  A    between atoms: C_131  and  C_132
REMARK  136  A    between atoms: C_133  and  C_134
REMARK  137  A    between atoms: C_135  and  C_136
REMARK  138  A    between atoms: C_138  and  C_139
REMARK  139  A    between atoms: C_139  and  C_142
REMARK  140  A    between atoms: C_142  and  C_145
REMARK  141  A    between atoms: C_150  and  C_151
REMARK  142  A    between atoms: C_151  and  C_152
REMARK  143  A    between atoms: C_152  and  C_155
REMARK  144  A    between atoms: C_155  and  C_158
REMARK  145  A    between atoms: C_163  and  C_164
REMARK  146  A    between atoms: C_166  and  C_167
REMARK  147  A    between atoms: C_167  and  C_168
REMARK  148  A    between atoms: C_168  and  C_171
REMARK  149  A    between atoms: C_178  and  C_179
REMARK  150  A    between atoms: C_179  and  C_180
REMARK  151  A    between atoms: C_179  and  C_214
REMARK  152  A    between atoms: C_181  and  C_182
REMARK  153  A    between atoms: C_183  and  C_184
REMARK  154  A    between atoms: C_185  and  C_186
REMARK  155  A    between atoms: C_187  and  C_188
REMARK  156  A    between atoms: C_189  and  C_190
REMARK  157  A    between atoms: C_191  and  C_192
REMARK  158  A    between atoms: C_193  and  C_194
REMARK  159  A    between atoms: C_195  and  C_196
REMARK  160  A    between atoms: C_197  and  C_198
REMARK  161  A    between atoms: C_199  and  C_200
REMARK  162  A    between atoms: C_203  and  C_204
REMARK  163  A    between atoms: C_203  and  C_214
REMARK  164  A    between atoms: C_204  and  C_207
REMARK  165  A    between atoms: C_207  and  C_210
REMARK  166  A    between atoms: C_216  and  C_217
REMARK  167  A    between atoms: C_218  and  C_219
REMARK  168  A    between atoms: C_220  and  C_221
REMARK  169  A    between atoms: C_222  and  C_223
REMARK  170  A    between atoms: C_224  and  C_225
REMARK  171  A    between atoms: C_226  and  C_227
REMARK  172  A    between atoms: C_228  and  C_229
REMARK  173  A    between atoms: C_230  and  C_231
REMARK  174  A    between atoms: C_232  and  C_233
REMARK  175  A    between atoms: C_234  and  C_235
REMARK                            x       y       z     vdW  Elec       q    Type
REMARK                         _______ _______ _______ _____ _____    ______ ____
ROOT
ATOM      1  C   UNL     1     -13.532  11.888  28.314  0.00  0.00    +0.000 C 
ENDROOT
BRANCH   1   2
ATOM      2  C   UNL     1     -12.889  10.759  26.852  0.00  0.00    +0.000 C 
BRANCH   2   3
ATOM      3  C   UNL     1     -12.813   9.210  27.051  0.00  0.00    +0.000 C 
ATOM      4  C   UNL     1     -11.875   8.797  28.350  0.00  0.00    +0.000 C 
ATOM      5  C   UNL     1     -10.446   8.470  27.941  0.00  0.00    +0.000 C 
ATOM      6  C   UNL     1     -10.508   7.009  26.985  0.00  0.00    +0.000 C 
ATOM      7  C   UNL     1     -10.901   7.069  25.566  0.00  0.00    +0.000 C 
ATOM      8  C   UNL     1     -12.345   8.072  25.418  0.00  0.00    +0.000 C 
BRANCH   5   9
ATOM      9  C   UNL     1      -9.462   8.347  29.229  0.00  0.00    +0.000 C 
ATOM     10  C   UNL     1     -10.100   7.919  30.173  0.00  0.00    +0.000 C 
ATOM     11  C   UNL     1      -8.190   7.531  28.731  0.00  0.00    +0.000 C 
BRANCH   9  12
ATOM     12  C   UNL     1      -8.789   9.785  29.658  0.00  0.00    +0.000 C 
ATOM     13  C   UNL     1      -9.191  10.176  31.102  0.00  0.00    +0.000 C 
ATOM     14  C   UNL     1      -9.584  11.079  28.881  0.00  0.00    +0.000 C 
BRANCH  12  15
ATOM     15  C   UNL     1      -7.372  10.106  29.304  0.00  0.00    +0.000 C 
ATOM     16  C   UNL     1      -7.498  11.622  29.265  0.00  0.00    +0.000 C 
ATOM     17  C   UNL     1      -6.901   9.700  27.965  0.00  0.00    +0.000 C 
ATOM     18  C   UNL     1      -6.401   9.620  30.296  0.00  0.00    +0.000 C 
ENDBRANCH  12  15
ENDBRANCH   9  12
ENDBRANCH   5   9
BRANCH   7  19
ATOM     19  C   UNL     1     -10.562   5.794  24.684  0.00  0.00    +0.000 C 
BRANCH  19  20
ATOM     20  C   UNL     1     -11.128   5.875  23.220  0.00  0.00    +0.000 C 
ATOM     21  C   UNL     1     -10.447   7.020  22.369  0.00  0.00    +0.000 C 
BRANCH  20  22
ATOM     22  O   UNL     1     -10.756   4.646  22.495  0.00  0.00    +0.000 OA
BRANCH  22  23
ATOM     23  C   UNL     1     -11.592   4.305  21.424  0.00  0.00    +0.000 C 
BRANCH  23  24
ATOM     24  C   UNL     1     -10.764   3.957  20.195  0.00  0.00    +0.000 C 
BRANCH  24  25
ATOM     25  O   UNL     1     -11.565   4.064  19.064  0.00  0.00    +0.000 OA
BRANCH  25  26
ATOM     26  C   UNL     1     -11.443   2.953  18.190  0.00  0.00    +0.000 C 
BRANCH  26  27
ATOM     27  C   UNL     1     -11.321   3.394  16.795  0.00  0.00    +0.000 C 
BRANCH  27  28
ATOM     28  O   UNL     1     -10.017   3.232  16.376  0.00  0.00    +0.000 OA
BRANCH  28  29
ATOM     29  C   UNL     1      -9.874   2.876  15.016  0.00  0.00    +0.000 C 
BRANCH  29  30
ATOM     30  C   UNL     1     -11.161   3.186  14.288  0.00  0.00    +0.000 C 
BRANCH  30  31
ATOM     31  O   UNL     1     -10.967   2.904  12.937  0.00  0.00    +0.000 OA
BRANCH  31  32
ATOM     32  C   UNL     1     -11.887   1.896  12.480  0.00  0.00    +0.000 C 
BRANCH  32  33
ATOM     33  C   UNL     1     -13.296   2.303  12.941  0.00  0.00    +0.000 C 
BRANCH  33  34
ATOM     34  O   UNL     1     -14.126   2.349  11.826  0.00  0.00    +0.000 OA
BRANCH  34  35
ATOM     35  C   UNL     1     -15.412   2.951  12.072  0.00  0.00    +0.000 C 
BRANCH  35  36
ATOM     36  C   UNL     1     -15.495   3.570  13.435  0.00  0.00    +0.000 C 
BRANCH  36  37
ATOM     37  O   UNL     1     -16.822   4.165  13.545  0.00  0.00    +0.000 OA
BRANCH  37  38
ATOM     38  C   UNL     1     -17.793   3.310  12.998  0.00  0.00    +0.000 C 
BRANCH  38  39
ATOM     39  C   UNL     1     -19.173   3.633  13.411  0.00  0.00    +0.000 C 
BRANCH  39  40
ATOM     40  O   UNL     1     -20.093   2.649  12.741  0.00  0.00    +0.000 OA
BRANCH  40  41
ATOM     41  C   UNL     1     -21.444   2.873  13.073  0.00  0.00    +0.000 C 
BRANCH  41  42
ATOM     42  C   UNL     1     -21.760   2.379  14.441  0.00  0.00    +0.000 C 
BRANCH  42  43
ATOM     43  O   UNL     1     -22.826   1.515  14.420  0.00  0.00    +0.000 OA
BRANCH  43  44
ATOM     44  C   UNL     1     -24.049   2.049  14.002  0.00  0.00    +0.000 C 
BRANCH  44  45
ATOM     45  C   UNL     1     -24.778   1.131  13.086  0.00  0.00    +0.000 C 
BRANCH  45  46
ATOM     46  O   UNL     1     -25.991   1.782  12.698  0.00  0.00    +0.000 OA
BRANCH  46  47
ATOM     47  C   UNL     1     -26.357   1.357  11.396  0.00  0.00    +0.000 C 
BRANCH  47  48
ATOM     48  C   UNL     1     -25.036   0.927  10.632  0.00  0.00    +0.000 C 
BRANCH  48  49
ATOM     49  O   UNL     1     -25.295  -0.193   9.860  0.00  0.00    +0.000 OA
BRANCH  49  50
ATOM     50  C   UNL     1     -24.994  -1.415  10.445  0.00  0.00    +0.000 C 
BRANCH  50  52
ATOM     51  O   UNL     1     -26.026  -2.043   8.388  0.00  0.00    +0.000 OA
ATOM     52  C   UNL     1     -25.755  -2.540   9.714  0.00  0.00    +0.000 C 
ENDBRANCH  50  52
ENDBRANCH  49  50
ENDBRANCH  48  49
ENDBRANCH  47  48
ENDBRANCH  46  47
ENDBRANCH  45  46
ENDBRANCH  44  45
ENDBRANCH  43  44
ENDBRANCH  42  43
ENDBRANCH  41  42
ENDBRANCH  40  41
ENDBRANCH  39  40
ENDBRANCH  38  39
ENDBRANCH  37  38
ENDBRANCH  36  37
ENDBRANCH  35  36
ENDBRANCH  34  35
ENDBRANCH  33  34
ENDBRANCH  32  33
ENDBRANCH  31  32
ENDBRANCH  30  31
ENDBRANCH  29  30
ENDBRANCH  28  29
ENDBRANCH  27  28
ENDBRANCH  26  27
ENDBRANCH  25  26
ENDBRANCH  24  25
ENDBRANCH  23  24
ENDBRANCH  22  23
ENDBRANCH  20  22
ENDBRANCH  19  20
BRANCH  19  53
ATOM     53  C   UNL     1      -9.001   5.415  24.497  0.00  0.00    +0.000 C 
BRANCH  53  55
ATOM     54  C   UNL     1      -7.734   7.277  25.243  0.00  0.00    +0.000 C 
ATOM     55  C   UNL     1      -7.917   6.170  24.269  0.00  0.00    +0.000 C 
BRANCH  55  56
ATOM     56  C   UNL     1      -6.923   5.967  23.128  0.00  0.00    +0.000 C 
ATOM     57  C   UNL     1      -7.806   5.624  21.977  0.00  0.00    +0.000 C 
ATOM     58  C   UNL     1      -6.258   7.277  22.816  0.00  0.00    +0.000 C 
BRANCH  56  59
ATOM     59  C   UNL     1      -5.884   4.853  23.462  0.00  0.00    +0.000 C 
ATOM     60  C   UNL     1      -6.524   3.552  23.751  0.00  0.00    +0.000 C 
ATOM     61  C   UNL     1      -5.091   5.322  24.706  0.00  0.00    +0.000 C 
BRANCH  59  62
ATOM     62  C   UNL     1      -4.799   4.609  22.317  0.00  0.00    +0.000 C 
ATOM     63  C   UNL     1      -5.442   4.113  21.071  0.00  0.00    +0.000 C 
ATOM     64  C   UNL     1      -3.845   3.520  22.747  0.00  0.00    +0.000 C 
ATOM     65  C   UNL     1      -3.960   5.761  22.039  0.00  0.00    +0.000 C 
ENDBRANCH  59  62
ENDBRANCH  56  59
ENDBRANCH  55  56
ENDBRANCH  53  55
ENDBRANCH  19  53
ENDBRANCH   7  19
BRANCH   8  66
ATOM     66  O   UNL     1     -13.174   8.167  24.338  0.00  0.00    +0.000 OA
BRANCH  66  67
ATOM     67  C   UNL     1     -12.876   9.196  23.422  0.00  0.00    +0.000 C 
BRANCH  67  68
ATOM     68  C   UNL     1     -13.511   9.095  22.018  0.00  0.00    +0.000 C 
BRANCH  68  69
ATOM     69  O   UNL     1     -14.399   8.012  21.999  0.00  0.00    +0.000 OA
BRANCH  69  70
ATOM     70  C   UNL     1     -14.901   7.715  20.656  0.00  0.00    +0.000 C 
BRANCH  70  71
ATOM     71  C   UNL     1     -14.200   6.502  20.070  0.00  0.00    +0.000 C 
BRANCH  71  72
ATOM     72  O   UNL     1     -14.906   5.228  20.570  0.00  0.00    +0.000 OA
BRANCH  72  73
ATOM     73  C   UNL     1     -14.990   4.255  19.537  0.00  0.00    +0.000 C 
BRANCH  73  74
ATOM     74  C   UNL     1     -14.834   4.958  18.182  0.00  0.00    +0.000 C 
BRANCH  74  75
ATOM     75  O   UNL     1     -14.958   4.053  17.131  0.00  0.00    +0.000 OA
BRANCH  75  76
ATOM     76  C   UNL     1     -15.050   2.690  17.564  0.00  0.00    +0.000 C 
BRANCH  76  77
ATOM     77  C   UNL     1     -14.466   1.739  16.553  0.00  0.00    +0.000 C 
BRANCH  77  78
ATOM     78  O   UNL     1     -13.692   0.826  17.317  0.00  0.00    +0.000 OA
BRANCH  78  79
ATOM     79  C   UNL     1     -13.506  -0.473  16.661  0.00  0.00    +0.000 C 
BRANCH  79  80
ATOM     80  C   UNL     1     -13.048  -0.189  15.282  0.00  0.00    +0.000 C 
BRANCH  80  81
ATOM     81  O   UNL     1     -13.789  -0.940  14.284  0.00  0.00    +0.000 OA
BRANCH  81  82
ATOM     82  C   UNL     1     -12.982  -1.582  13.350  0.00  0.00    +0.000 C 
BRANCH  82  83
ATOM     83  C   UNL     1     -13.639  -1.550  11.956  0.00  0.00    +0.000 C 
BRANCH  83  84
ATOM     84  O   UNL     1     -14.940  -1.018  12.038  0.00  0.00    +0.000 OA
BRANCH  84  85
ATOM     85  C   UNL     1     -15.550  -0.681  10.895  0.00  0.00    +0.000 C 
BRANCH  85  86
ATOM     86  C   UNL     1     -14.616  -0.919   9.689  0.00  0.00    +0.000 C 
BRANCH  86  87
ATOM     87  O   UNL     1     -14.170   0.272   9.094  0.00  0.00    +0.000 OA
BRANCH  87  88
ATOM     88  C   UNL     1     -15.185   1.120   8.685  0.00  0.00    +0.000 C 
BRANCH  88  89
ATOM     89  C   UNL     1     -14.762   1.947   7.482  0.00  0.00    +0.000 C 
BRANCH  89  90
ATOM     90  O   UNL     1     -15.643   3.056   7.336  0.00  0.00    +0.000 OA
BRANCH  90  91
ATOM     91  C   UNL     1     -14.886   4.275   7.484  0.00  0.00    +0.000 C 
BRANCH  91  92
ATOM     92  C   UNL     1     -13.941   4.370   6.313  0.00  0.00    +0.000 C 
BRANCH  92  93
ATOM     93  O   UNL     1     -12.606   4.297   6.805  0.00  0.00    +0.000 OA
BRANCH  93  94
ATOM     94  C   UNL     1     -11.943   5.502   6.772  0.00  0.00    +0.000 C 
BRANCH  94  96
ATOM     95  O   UNL     1      -9.657   5.410   7.508  0.00  0.00    +0.000 OA
ATOM     96  C   UNL     1     -10.476   5.303   6.374  0.00  0.00    +0.000 C 
ENDBRANCH  94  96
ENDBRANCH  93  94
ENDBRANCH  92  93
ENDBRANCH  91  92
ENDBRANCH  90  91
ENDBRANCH  89  90
ENDBRANCH  88  89
ENDBRANCH  87  88
ENDBRANCH  86  87
ENDBRANCH  85  86
ENDBRANCH  84  85
ENDBRANCH  83  84
ENDBRANCH  82  83
ENDBRANCH  81  82
ENDBRANCH  80  81
ENDBRANCH  79  80
ENDBRANCH  78  79
ENDBRANCH  77  78
ENDBRANCH  76  77
ENDBRANCH  75  76
ENDBRANCH  74  75
ENDBRANCH  73  74
ENDBRANCH  72  73
ENDBRANCH  71  72
ENDBRANCH  70  71
ENDBRANCH  69  70
ENDBRANCH  68  69
ENDBRANCH  67  68
ENDBRANCH  66  67
ENDBRANCH   8  66
ENDBRANCH   2   3
ENDBRANCH   1   2
BRANCH   1  97
ATOM     97  C   UNL     1     -14.887  11.816  28.993  0.00  0.00    +0.000 C 
BRANCH  97  98
ATOM     98  C   UNL     1     -16.091  11.592  27.936  0.00  0.00    +0.000 C 
ATOM     99  C   UNL     1     -17.004  12.848  27.805  0.00  0.00    +0.000 C 
ATOM    100  C   UNL     1     -18.228  12.740  26.792  0.00  0.00    +0.000 C 
ATOM    101  C   UNL     1     -19.431  13.209  26.099  0.00  0.00    +0.000 C 
ATOM    102  C   UNL     1     -20.646  12.383  25.750  0.00  0.00    +0.000 C 
ATOM    103  C   UNL     1     -21.804  12.969  25.109  0.00  0.00    +0.000 C 
ATOM    104  C   UNL     1     -21.762  14.389  24.887  0.00  0.00    +0.000 C 
ATOM    105  C   UNL     1     -20.641  15.180  25.111  0.00  0.00    +0.000 C 
ATOM    106  C   UNL     1     -19.587  14.514  25.661  0.00  0.00    +0.000 C 
ATOM    107  C   UNL     1     -18.399  11.925  26.679  0.00  0.00    +0.000 C 
ATOM    108  C   UNL     1     -17.764  10.740  26.539  0.00  0.00    +0.000 C 
ATOM    109  C   UNL     1     -16.284  10.603  26.926  0.00  0.00    +0.000 C 
BRANCH 103 110
ATOM    110  C   UNL     1     -22.959  12.066  24.683  0.00  0.00    +0.000 C 
ATOM    111  C   UNL     1     -23.478  12.718  23.370  0.00  0.00    +0.000 C 
ATOM    112  C   UNL     1     -22.435  10.766  24.279  0.00  0.00    +0.000 C 
BRANCH 110 113
ATOM    113  C   UNL     1     -24.178  11.833  25.604  0.00  0.00    +0.000 C 
ATOM    114  C   UNL     1     -24.310  10.351  25.761  0.00  0.00    +0.000 C 
ATOM    115  C   UNL     1     -23.916  12.501  26.958  0.00  0.00    +0.000 C 
BRANCH 113 116
ATOM    116  C   UNL     1     -25.547  12.462  25.083  0.00  0.00    +0.000 C 
ATOM    117  C   UNL     1     -26.668  12.225  26.075  0.00  0.00    +0.000 C 
ATOM    118  C   UNL     1     -26.004  11.769  23.850  0.00  0.00    +0.000 C 
ATOM    119  C   UNL     1     -25.387  13.926  24.780  0.00  0.00    +0.000 C 
ENDBRANCH 113 116
ENDBRANCH 110 113
ENDBRANCH 103 110
BRANCH 108 120
ATOM    120  C   UNL     1     -18.651   9.441  26.565  0.00  0.00    +0.000 C 
ATOM    121  C   UNL     1     -17.720   8.266  26.225  0.00  0.00    +0.000 C 
ATOM    122  C   UNL     1     -19.594   9.538  25.421  0.00  0.00    +0.000 C 
BRANCH 120 123
ATOM    123  C   UNL     1     -19.312   9.000  27.988  0.00  0.00    +0.000 C 
ATOM    124  C   UNL     1     -18.809   7.724  28.498  0.00  0.00    +0.000 C 
ATOM    125  C   UNL     1     -18.986  10.010  29.060  0.00  0.00    +0.000 C 
BRANCH 123 126
ATOM    126  C   UNL     1     -20.865   8.791  27.946  0.00  0.00    +0.000 C 
ATOM    127  C   UNL     1     -21.209   7.678  28.873  0.00  0.00    +0.000 C 
ATOM    128  C   UNL     1     -21.311   8.336  26.583  0.00  0.00    +0.000 C 
ATOM    129  C   UNL     1     -21.574  10.062  28.227  0.00  0.00    +0.000 C 
ENDBRANCH 123 126
ENDBRANCH 120 123
ENDBRANCH 108 120
BRANCH 106 130
ATOM    130  O   UNL     1     -18.374  15.159  25.716  0.00  0.00    +0.000 OA
BRANCH 130 131
ATOM    131  C   UNL     1     -17.858  15.808  24.530  0.00  0.00    +0.000 C 
BRANCH 131 132
ATOM    132  C   UNL     1     -16.445  15.298  24.319  0.00  0.00    +0.000 C 
BRANCH 132 133
ATOM    133  O   UNL     1     -16.462  13.938  24.054  0.00  0.00    +0.000 OA
BRANCH 133 134
ATOM    134  C   UNL     1     -17.008  13.622  22.784  0.00  0.00    +0.000 C 
BRANCH 134 135
ATOM    135  C   UNL     1     -17.843  12.393  22.888  0.00  0.00    +0.000 C 
BRANCH 135 136
ATOM    136  O   UNL     1     -18.905  12.735  22.625  0.00  0.00    +0.000 OA
BRANCH 136 137
ATOM    137  C   UNL     1     -19.664  11.741  22.031  0.00  0.00    +0.000 C 
BRANCH 137 138
ATOM    138  C   UNL     1     -18.806  10.687  21.252  0.00  0.00    +0.000 C 
BRANCH 138 139
ATOM    139  O   UNL     1     -19.392  10.500  20.046  0.00  0.00    +0.000 OA
BRANCH 139 140
ATOM    140  C   UNL     1     -18.658   9.582  19.207  0.00  0.00    +0.000 C 
BRANCH 140 141
ATOM    141  C   UNL     1     -19.624   8.807  18.366  0.00  0.00    +0.000 C 
BRANCH 141 142
ATOM    142  O   UNL     1     -20.373   9.690  17.561  0.00  0.00    +0.000 OA
BRANCH 142 143
ATOM    143  C   UNL     1     -21.674   9.200  17.245  0.00  0.00    +0.000 C 
BRANCH 143 144
ATOM    144  C   UNL     1     -22.110   8.154  18.306  0.00  0.00    +0.000 C 
BRANCH 144 145
ATOM    145  O   UNL     1     -22.940   7.131  17.730  0.00  0.00    +0.000 OA
BRANCH 145 146
ATOM    146  C   UNL     1     -24.001   7.520  16.845  0.00  0.00    +0.000 C 
BRANCH 146 147
ATOM    147  C   UNL     1     -25.194   6.603  16.941  0.00  0.00    +0.000 C 
BRANCH 147 148
ATOM    148  O   UNL     1     -25.347   6.223  18.322  0.00  0.00    +0.000 OA
BRANCH 148 149
ATOM    149  C   UNL     1     -25.593   4.844  18.547  0.00  0.00    +0.000 C 
BRANCH 149 150
ATOM    150  C   UNL     1     -24.398   4.216  19.232  0.00  0.00    +0.000 C 
BRANCH 150 151
ATOM    151  O   UNL     1     -23.508   3.720  18.224  0.00  0.00    +0.000 OA
BRANCH 151 152
ATOM    152  C   UNL     1     -22.221   3.415  18.635  0.00  0.00    +0.000 C 
BRANCH 152 153
ATOM    153  C   UNL     1     -22.215   2.737  19.992  0.00  0.00    +0.000 C 
BRANCH 153 154
ATOM    154  O   UNL     1     -22.313   1.325  19.815  0.00  0.00    +0.000 OA
BRANCH 154 155
ATOM    155  C   UNL     1     -22.972   0.660  20.854  0.00  0.00    +0.000 C 
BRANCH 155 156
ATOM    156  C   UNL     1     -22.654   1.339  22.211  0.00  0.00    +0.000 C 
BRANCH 156 157
ATOM    157  O   UNL     1     -22.947   0.389  23.239  0.00  0.00    +0.000 OA
BRANCH 157 158
ATOM    158  C   UNL     1     -23.368  -0.851  22.735  0.00  0.00    +0.000 C 
BRANCH 158 160
ATOM    159  O   UNL     1     -25.804  -1.262  22.845  0.00  0.00    +0.000 OA
ATOM    160  C   UNL     1     -24.474  -1.260  23.605  0.00  0.00    +0.000 C 
ENDBRANCH 158 160
ENDBRANCH 157 158
ENDBRANCH 156 157
ENDBRANCH 155 156
ENDBRANCH 154 155
ENDBRANCH 153 154
ENDBRANCH 152 153
ENDBRANCH 151 152
ENDBRANCH 150 151
ENDBRANCH 149 150
ENDBRANCH 148 149
ENDBRANCH 147 148
ENDBRANCH 146 147
ENDBRANCH 145 146
ENDBRANCH 144 145
ENDBRANCH 143 144
ENDBRANCH 142 143
ENDBRANCH 141 142
ENDBRANCH 140 141
ENDBRANCH 139 140
ENDBRANCH 138 139
ENDBRANCH 137 138
ENDBRANCH 136 137
ENDBRANCH 135 136
ENDBRANCH 134 135
ENDBRANCH 133 134
ENDBRANCH 132 133
ENDBRANCH 131 132
ENDBRANCH 130 131
ENDBRANCH 106 130
BRANCH  99 161
ATOM    161  O   UNL     1     -17.291  13.606  28.913  0.00  0.00    +0.000 OA
BRANCH 161 162
ATOM    162  C   UNL     1     -17.590  14.998  28.759  0.00  0.00    +0.000 C 
BRANCH 162 163
ATOM    163  C   UNL     1     -16.573  15.960  29.352  0.00  0.00    +0.000 C 
BRANCH 163 164
ATOM    164  O   UNL     1     -15.412  15.980  28.579  0.00  0.00    +0.000 OA
BRANCH 164 165
ATOM    165  C   UNL     1     -15.255  17.106  27.758  0.00  0.00    +0.000 C 
BRANCH 165 166
ATOM    166  C   UNL     1     -14.116  16.957  26.745  0.00  0.00    +0.000 C 
BRANCH 166 167
ATOM    167  O   UNL     1     -14.239  17.995  25.741  0.00  0.00    +0.000 OA
BRANCH 167 168
ATOM    168  C   UNL     1     -14.948  19.105  26.249  0.00  0.00    +0.000 C 
BRANCH 168 169
ATOM    169  C   UNL     1     -15.853  19.705  25.184  0.00  0.00    +0.000 C 
BRANCH 169 170
ATOM    170  O   UNL     1     -15.432  19.311  23.915  0.00  0.00    +0.000 OA
BRANCH 170 171
ATOM    171  C   UNL     1     -15.926  20.130  22.874  0.00  0.00    +0.000 C 
BRANCH 171 172
ATOM    172  C   UNL     1     -17.020  19.395  22.036  0.00  0.00    +0.000 C 
BRANCH 172 173
ATOM    173  O   UNL     1     -16.625  18.037  21.927  0.00  0.00    +0.000 OA
BRANCH 173 174
ATOM    174  C   UNL     1     -17.463  17.348  20.949  0.00  0.00    +0.000 C 
BRANCH 174 175
ATOM    175  C   UNL     1     -18.017  18.362  19.949  0.00  0.00    +0.000 C 
BRANCH 175 176
ATOM    176  O   UNL     1     -17.468  18.081  18.703  0.00  0.00    +0.000 OA
BRANCH 176 177
ATOM    177  C   UNL     1     -17.134  16.710  18.555  0.00  0.00    +0.000 C 
BRANCH 177 178
ATOM    178  C   UNL     1     -15.874  16.653  17.702  0.00  0.00    +0.000 C 
BRANCH 178 179
ATOM    179  O   UNL     1     -15.961  17.609  16.660  0.00  0.00    +0.000 OA
BRANCH 179 180
ATOM    180  C   UNL     1     -15.886  17.013  15.338  0.00  0.00    +0.000 C 
BRANCH 180 181
ATOM    181  C   UNL     1     -14.715  17.618  14.563  0.00  0.00    +0.000 C 
BRANCH 181 182
ATOM    182  O   UNL     1     -14.323  16.765  13.523  0.00  0.00    +0.000 OA
BRANCH 182 183
ATOM    183  C   UNL     1     -12.949  17.028  13.068  0.00  0.00    +0.000 C 
BRANCH 183 184
ATOM    184  C   UNL     1     -11.876  16.356  13.926  0.00  0.00    +0.000 C 
BRANCH 184 185
ATOM    185  O   UNL     1     -11.141  17.379  14.514  0.00  0.00    +0.000 OA
BRANCH 185 186
ATOM    186  C   UNL     1     -10.286  18.057  13.577  0.00  0.00    +0.000 C 
BRANCH 186 187
ATOM    187  C   UNL     1      -8.856  17.589  13.726  0.00  0.00    +0.000 C 
BRANCH 187 188
ATOM    188  O   UNL     1      -8.343  17.414  12.340  0.00  0.00    +0.000 OA
BRANCH 188 189
ATOM    189  C   UNL     1      -6.964  16.989  12.375  0.00  0.00    +0.000 C 
BRANCH 189 191
ATOM    190  O   UNL     1      -4.872  17.795  13.133  0.00  0.00    +0.000 OA
ATOM    191  C   UNL     1      -6.136  18.203  12.729  0.00  0.00    +0.000 C 
ENDBRANCH 189 191
ENDBRANCH 188 189
ENDBRANCH 187 188
ENDBRANCH 186 187
ENDBRANCH 185 186
ENDBRANCH 184 185
ENDBRANCH 183 184
ENDBRANCH 182 183
ENDBRANCH 181 182
ENDBRANCH 180 181
ENDBRANCH 179 180
ENDBRANCH 178 179
ENDBRANCH 177 178
ENDBRANCH 176 177
ENDBRANCH 175 176
ENDBRANCH 174 175
ENDBRANCH 173 174
ENDBRANCH 172 173
ENDBRANCH 171 172
ENDBRANCH 170 171
ENDBRANCH 169 170
ENDBRANCH 168 169
ENDBRANCH 167 168
ENDBRANCH 166 167
ENDBRANCH 165 166
ENDBRANCH 164 165
ENDBRANCH 163 164
ENDBRANCH 162 163
ENDBRANCH 161 162
ENDBRANCH  99 161
ENDBRANCH  97  98
BRANCH  97 192
ATOM    192  C   UNL     1     -14.431  11.144  30.168  0.00  0.00    +0.000 C 
BRANCH 192 193
ATOM    193  C   UNL     1     -14.627   9.755  30.503  0.00  0.00    +0.000 C 
ATOM    194  C   UNL     1     -15.440   8.875  29.678  0.00  0.00    +0.000 C 
BRANCH 193 195
ATOM    195  C   UNL     1     -14.034   9.154  31.713  0.00  0.00    +0.000 C 
ATOM    196  C   UNL     1     -13.708   7.693  31.363  0.00  0.00    +0.000 C 
ATOM    197  C   UNL     1     -12.702   9.823  32.077  0.00  0.00    +0.000 C 
BRANCH 195 198
ATOM    198  C   UNL     1     -15.068   9.241  32.951  0.00  0.00    +0.000 C 
ATOM    199  C   UNL     1     -16.459   9.307  32.494  0.00  0.00    +0.000 C 
ATOM    200  C   UNL     1     -14.762  10.429  33.803  0.00  0.00    +0.000 C 
BRANCH 198 201
ATOM    201  C   UNL     1     -15.073   8.071  34.005  0.00  0.00    +0.000 C 
ATOM    202  C   UNL     1     -15.803   6.852  33.530  0.00  0.00    +0.000 C 
ATOM    203  C   UNL     1     -15.751   8.457  35.291  0.00  0.00    +0.000 C 
ATOM    204  C   UNL     1     -13.714   7.608  34.242  0.00  0.00    +0.000 C 
ENDBRANCH 198 201
ENDBRANCH 195 198
ENDBRANCH 193 195
ENDBRANCH 192 193
ENDBRANCH  97 192
ENDBRANCH   1  97
BRANCH   1 205
ATOM    205  O   UNL     1     -13.365  13.102  27.611  0.00  0.00    +0.000 OA
BRANCH 205 206
ATOM    206  C   UNL     1     -12.341  13.918  28.132  0.00  0.00    +0.000 C 
BRANCH 206 207
ATOM    207  C   UNL     1     -11.434  14.433  27.052  0.00  0.00    +0.000 C 
BRANCH 207 208
ATOM    208  O   UNL     1     -10.057  14.311  27.428  0.00  0.00    +0.000 OA
BRANCH 208 209
ATOM    209  C   UNL     1      -9.223  15.362  26.893  0.00  0.00    +0.000 C 
BRANCH 209 210
ATOM    210  C   UNL     1     -10.054  16.567  26.531  0.00  0.00    +0.000 C 
BRANCH 210 211
ATOM    211  C   UNL     1      -9.828  17.757  27.465  0.00  0.00    +0.000 C 
BRANCH 211 212
ATOM    212  C   UNL     1     -10.920  17.853  28.507  0.00  0.00    +0.000 C 
BRANCH 212 213
ATOM    213  C   UNL     1     -10.392  17.535  29.867  0.00  0.00    +0.000 C 
BRANCH 213 214
ATOM    214  O   UNL     1     -10.579  16.235  30.190  0.00  0.00    +0.000 OA
BRANCH 214 215
ATOM    215  C   UNL     1      -9.331  15.571  30.534  0.00  0.00    +0.000 C 
BRANCH 215 216
ATOM    216  C   UNL     1      -9.552  14.264  31.265  0.00  0.00    +0.000 C 
BRANCH 216 217
ATOM    217  O   UNL     1      -9.055  14.340  32.525  0.00  0.00    +0.000 OA
BRANCH 217 218
ATOM    218  C   UNL     1      -9.020  15.422  33.553  0.00  0.00    +0.000 C 
BRANCH 218 219
ATOM    219  C   UNL     1      -7.516  15.549  33.968  0.00  0.00    +0.000 C 
BRANCH 219 220
ATOM    220  O   UNL     1      -6.712  15.659  32.854  0.00  0.00    +0.000 OA
BRANCH 220 221
ATOM    221  C   UNL     1      -5.982  16.890  32.711  0.00  0.00    +0.000 C 
BRANCH 221 222
ATOM    222  C   UNL     1      -6.367  17.547  31.387  0.00  0.00    +0.000 C 
BRANCH 222 223
ATOM    223  O   UNL     1      -5.235  17.898  30.634  0.00  0.00    +0.000 OA
BRANCH 223 224
ATOM    224  C   UNL     1      -5.523  18.613  29.447  0.00  0.00    +0.000 C 
BRANCH 224 225
ATOM    225  C   UNL     1      -6.159  17.626  28.461  0.00  0.00    +0.000 C 
BRANCH 225 226
ATOM    226  O   UNL     1      -5.465  17.634  27.217  0.00  0.00    +0.000 OA
BRANCH 226 227
ATOM    227  C   UNL     1      -6.326  17.532  26.097  0.00  0.00    +0.000 C 
BRANCH 227 228
ATOM    228  C   UNL     1      -5.645  18.165  24.911  0.00  0.00    +0.000 C 
BRANCH 228 229
ATOM    229  O   UNL     1      -6.558  18.658  23.969  0.00  0.00    +0.000 OA
BRANCH 229 230
ATOM    230  C   UNL     1      -6.047  18.648  22.662  0.00  0.00    +0.000 C 
BRANCH 230 231
ATOM    231  C   UNL     1      -6.809  19.601  21.792  0.00  0.00    +0.000 C 
BRANCH 231 232
ATOM    232  O   UNL     1      -6.024  19.930  20.673  0.00  0.00    +0.000 OA
BRANCH 232 233
ATOM    233  C   UNL     1      -6.722  19.835  19.453  0.00  0.00    +0.000 C 
BRANCH 233 234
ATOM    234  C   UNL     1      -5.929  19.018  18.456  0.00  0.00    +0.000 C 
ATOM    235  O   UNL     1      -4.577  19.417  18.507  0.00  0.00    +0.000 OA
ENDBRANCH 233 234
ENDBRANCH 232 233
ENDBRANCH 231 232
ENDBRANCH 230 231
ENDBRANCH 229 230
ENDBRANCH 228 229
ENDBRANCH 227 228
ENDBRANCH 226 227
ENDBRANCH 225 226
ENDBRANCH 224 225
ENDBRANCH 223 224
ENDBRANCH 222 223
ENDBRANCH 221 222
ENDBRANCH 220 221
ENDBRANCH 219 220
ENDBRANCH 218 219
ENDBRANCH 217 218
ENDBRANCH 216 217
ENDBRANCH 215 216
ENDBRANCH 214 215
ENDBRANCH 213 214
ENDBRANCH 212 213
ENDBRANCH 211 212
ENDBRANCH 210 211
ENDBRANCH 209 210
ENDBRANCH 208 209
ENDBRANCH 207 208
ENDBRANCH 206 207
ENDBRANCH 205 206
ENDBRANCH   1 205
TORSDOF 175
BEGIN_RES LEU A  10
REMARK  2 active torsions:
REMARK  status: ('A' for Active; 'I' for Inactive)
REMARK    1  A    between atoms: CA   and  CB  
REMARK    2  A    between atoms: CB   and  CG  
ROOT
ATOM      1  CA  LEU A  10     -10.775  -4.871   5.898  1.00 25.14     0.177 C 
ENDROOT
BRANCH   1   2
ATOM      2  CB  LEU A  10     -12.191  -4.387   6.226  1.00 17.87     0.038 C 
BRANCH   2   3
ATOM      3  CG  LEU A  10     -12.375  -2.870   6.147  1.00 24.95    -0.020 C 
ATOM      4  CD2 LEU A  10     -13.741  -2.520   6.633  1.00 26.38     0.009 C 
ATOM      5  CD1 LEU A  10     -12.169  -2.371   4.727  1.00 28.12     0.009 C 
ENDBRANCH   2   3
ENDBRANCH   1   2
END_RES LEU A  10
BEGIN_RES CYS A  12
REMARK  2 active torsions:
REMARK  status: ('A' for Active; 'I' for Inactive)
REMARK    3  A    between atoms: CA   and  CB  
REMARK    4  A    between atoms: CB   and  SG  
ROOT
ATOM      6  CA  CYS A  12      -8.555   0.470   8.750  1.00 23.16     0.185 C 
ENDROOT
BRANCH   6   7
ATOM      7  CB  CYS A  12      -9.828   0.763   9.555  1.00 20.43     0.105 C 
BRANCH   7   8
ATOM      8  SG  CYS A  12     -10.914   2.062   8.890  1.00 24.64    -0.180 SA
ATOM      9  H04 CYS A  12     -10.877   2.034   7.551  1.00 24.64     0.101 HD
ENDBRANCH   7   8
ENDBRANCH   6   7
END_RES CYS A  12
BEGIN_RES GLN A  14
REMARK  3 active torsions:
REMARK  status: ('A' for Active; 'I' for Inactive)
REMARK    5  A    between atoms: CA   and  CB  
REMARK    6  A    between atoms: CB   and  CG  
REMARK    7  A    between atoms: CG   and  CD  
REMARK       I    between atoms: CD   and  NE2 
ROOT
ATOM     10  CA  GLN A  14      -4.645   5.402  11.377  1.00 10.43     0.177 C 
ENDROOT
BRANCH  10  11
ATOM     11  CB  GLN A  14      -5.541   5.549  12.608  1.00 14.45     0.044 C 
BRANCH  11  12
ATOM     12  CG  GLN A  14      -6.745   6.437  12.393  1.00 13.74     0.105 C 
BRANCH  12  13
ATOM     13  CD  GLN A  14      -6.990   7.368  13.556  1.00 16.29     0.215 C 
ATOM     14  NE2 GLN A  14      -6.524   6.983  14.724  1.00  8.57    -0.370 N 
ATOM     15  H06 GLN A  14      -6.657   7.566  15.538  1.00  8.57     0.159 HD
ATOM     16  H07 GLN A  14      -6.032   6.105  14.806  1.00  8.57     0.159 HD
ATOM     17  OE1 GLN A  14      -7.589   8.421  13.404  1.00 23.55    -0.274 OA
ENDBRANCH  12  13
ENDBRANCH  11  12
ENDBRANCH  10  11
END_RES GLN A  14
BEGIN_RES SER A  16
REMARK  2 active torsions:
REMARK  status: ('A' for Active; 'I' for Inactive)
REMARK    8  A    between atoms: CA   and  CB  
REMARK    9  A    between atoms: CB   and  OG  
ROOT
ATOM     18  CA  SER A  16      -1.305  10.019  14.282  1.00  2.34     0.200 C 
ENDROOT
BRANCH  18  19
ATOM     19  CB  SER A  16      -2.242   9.935  15.479  1.00  3.12     0.199 C 
BRANCH  19  20
ATOM     20  OG  SER A  16      -1.945   8.789  16.257  1.00  1.00    -0.398 OA
ATOM     21  H04 SER A  16      -2.416   8.031  15.904  1.00  1.00     0.209 HD
ENDBRANCH  19  20
ENDBRANCH  18  19
END_RES SER A  16
BEGIN_RES LEU A  32
REMARK  2 active torsions:
REMARK  status: ('A' for Active; 'I' for Inactive)
REMARK   10  A    between atoms: CA   and  CB  
REMARK   11  A    between atoms: CB   and  CG  
ROOT
ATOM     22  CA  LEU A  32     -10.272  -4.106   1.587  1.00 16.16     0.177 C 
ENDROOT
BRANCH  22  23
ATOM     23  CB  LEU A  32     -11.613  -3.858   0.880  1.00 12.35     0.038 C 
BRANCH  23  24
ATOM     24  CG  LEU A  32     -12.593  -5.032   1.079  1.00  9.77    -0.020 C 
ATOM     25  CD1 LEU A  32     -13.180  -4.997   2.470  1.00  4.35     0.009 C 
ATOM     26  CD2 LEU A  32     -13.700  -4.987   0.059  1.00 10.60     0.009 C 
ENDBRANCH  23  24
ENDBRANCH  22  23
END_RES LEU A  32
BEGIN_RES HIS A  38
REMARK  2 active torsions:
REMARK  status: ('A' for Active; 'I' for Inactive)
REMARK   12  A    between atoms: CA   and  CB  
REMARK   13  A    between atoms: CB   and  CG  
ROOT
ATOM     27  CA  HIS A  38     -10.959   4.941   1.621  1.00 16.94     0.182 C 
ENDROOT
BRANCH  27  28
ATOM     28  CB  HIS A  38     -11.810   4.840   2.881  1.00 15.47     0.095 C 
BRANCH  28  29
ATOM     29  CG  HIS A  38     -13.026   3.986   2.721  1.00 18.62     0.053 A 
ATOM     30  CD2 HIS A  38     -14.193   4.214   2.072  1.00 15.06     0.116 A 
ATOM     31  NE2 HIS A  38     -14.958   3.085   2.214  1.00 18.12    -0.359 N 
ATOM     32  CE1 HIS A  38     -14.290   2.197   2.924  1.00 14.78     0.207 A 
ATOM     33  H06 HIS A  38     -15.886   2.955   1.835  1.00 18.12     0.166 HD
ATOM     34  ND1 HIS A  38     -13.121   2.715   3.244  1.00 16.58    -0.247 NA
ENDBRANCH  28  29
ENDBRANCH  27  28
END_RES HIS A  38
BEGIN_RES TRP A  63
REMARK  2 active torsions:
REMARK  status: ('A' for Active; 'I' for Inactive)
REMARK   14  A    between atoms: CA   and  CB  
REMARK   15  A    between atoms: CB   and  CG  
ROOT
ATOM     35  CA  TRP A  63     -22.437   6.257   6.543  1.00 27.04     0.181 C 
ENDROOT
BRANCH  35  36
ATOM     36  CB  TRP A  63     -22.360   6.642   5.068  1.00 31.37     0.075 C 
BRANCH  36  37
ATOM     37  CG  TRP A  63     -20.955   6.714   4.509  1.00 34.37    -0.028 A 
ATOM     38  CD2 TRP A  63     -19.899   5.759   4.690  1.00 33.79    -0.002 A 
ATOM     39  CE3 TRP A  63     -19.775   4.573   5.416  1.00 32.99     0.014 A 
ATOM     40  CE2 TRP A  63     -18.797   6.207   3.929  1.00 35.84     0.042 A 
ATOM     41  CZ3 TRP A  63     -18.574   3.880   5.363  1.00 32.93     0.001 A 
ATOM     42  CH2 TRP A  63     -17.496   4.352   4.598  1.00 39.24     0.002 A 
ATOM     43  CZ2 TRP A  63     -17.589   5.511   3.874  1.00 37.99     0.030 A 
ATOM     44  NE1 TRP A  63     -19.169   7.374   3.320  1.00 37.98    -0.365 N 
ATOM     45  H06 TRP A  63     -18.587   7.929   2.709  1.00 37.98     0.165 HD
ATOM     46  CD1 TRP A  63     -20.463   7.669   3.676  1.00 38.16     0.096 A 
ENDBRANCH  36  37
ENDBRANCH  35  36
END_RES TRP A  63
BEGIN_RES LEU A  66
REMARK  2 active torsions:
REMARK  status: ('A' for Active; 'I' for Inactive)
REMARK   16  A    between atoms: CA   and  CB  
REMARK   17  A    between atoms: CB   and  CG  
ROOT
ATOM     47  CA  LEU A  66     -20.004   6.489  11.120  1.00 10.90     0.177 C 
ENDROOT
BRANCH  47  48
ATOM     48  CB  LEU A  66     -19.626   5.453  10.069  1.00 13.57     0.038 C 
BRANCH  48  49
ATOM     49  CG  LEU A  66     -18.367   4.626  10.324  1.00  8.73    -0.020 C 
ATOM     50  CD1 LEU A  66     -18.409   3.339   9.541  1.00 14.23     0.009 C 
ATOM     51  CD2 LEU A  66     -17.168   5.441   9.912  1.00  1.92     0.009 C 
ENDBRANCH  48  49
ENDBRANCH  47  48
END_RES LEU A  66
BEGIN_RES PHE A  70
REMARK  2 active torsions:
REMARK  status: ('A' for Active; 'I' for Inactive)
REMARK   18  A    between atoms: CA   and  CB  
REMARK   19  A    between atoms: CB   and  CG  
ROOT
ATOM     52  CA  PHE A  70     -14.974   9.434  13.165  1.00  8.78     0.180 C 
ENDROOT
BRANCH  52  53
ATOM     53  CB  PHE A  70     -14.707   9.132  11.681  1.00  6.33     0.073 C 
BRANCH  53  54
ATOM     54  CG  PHE A  70     -13.931   7.862  11.459  1.00  3.42    -0.056 A 
ATOM     55  CD1 PHE A  70     -13.694   7.383  10.180  1.00 13.88     0.007 A 
ATOM     56  CE1 PHE A  70     -13.009   6.171   9.981  1.00 12.71     0.001 A 
ATOM     57  CZ  PHE A  70     -12.557   5.433  11.075  1.00  4.21     0.000 A 
ATOM     58  CE2 PHE A  70     -12.785   5.902  12.356  1.00  2.83     0.001 A 
ATOM     59  CD2 PHE A  70     -13.470   7.115  12.543  1.00  1.00     0.007 A 
ENDBRANCH  53  54
ENDBRANCH  52  53
END_RES PHE A  70
BEGIN_RES TYR A  73
REMARK  3 active torsions:
REMARK  status: ('A' for Active; 'I' for Inactive)
REMARK   20  A    between atoms: CA   and  CB  
REMARK   21  A    between atoms: CB   and  CG  
REMARK   22  A    between atoms: CZ   and  OH  
ROOT
ATOM     60  CA  TYR A  73     -13.212  10.166  17.260  1.00 12.17     0.180 C 
ENDROOT
BRANCH  60  61
ATOM     61  CB  TYR A  73     -13.301   8.846  16.517  1.00 12.84     0.073 C 
BRANCH  61  62
ATOM     62  CG  TYR A  73     -12.034   8.065  16.561  1.00 15.89    -0.056 A 
ATOM     63  CD1 TYR A  73     -11.368   7.724  15.405  1.00 16.00     0.010 A 
ATOM     64  CE1 TYR A  73     -10.198   6.967  15.443  1.00 13.55     0.037 A 
ATOM     65  CZ  TYR A  73      -9.700   6.550  16.661  1.00 18.13     0.065 A 
ATOM     66  CE2 TYR A  73     -10.346   6.877  17.831  1.00 15.89     0.037 A 
ATOM     67  CD2 TYR A  73     -11.510   7.634  17.775  1.00 21.86     0.010 A 
BRANCH  65  68
ATOM     68  OH  TYR A  73      -8.547   5.807  16.722  1.00 12.12    -0.361 OA
ATOM     69  H08 TYR A  73      -8.141   5.773  15.852  1.00 12.12     0.217 HD
ENDBRANCH  65  68
ENDBRANCH  61  62
ENDBRANCH  60  61
END_RES TYR A  73
BEGIN_RES PHE A  77
REMARK  2 active torsions:
REMARK  status: ('A' for Active; 'I' for Inactive)
REMARK   23  A    between atoms: CA   and  CB  
REMARK   24  A    between atoms: CB   and  CG  
ROOT
ATOM     70  CA  PHE A  77      -8.400  10.581  20.110  1.00 17.17     0.180 C 
ENDROOT
BRANCH  70  71
ATOM     71  CB  PHE A  77      -8.228   9.750  18.851  1.00 10.44     0.073 C 
BRANCH  71  72
ATOM     72  CG  PHE A  77      -6.938   8.993  18.800  1.00  6.07    -0.056 A 
ATOM     73  CD2 PHE A  77      -6.869   7.697  19.259  1.00  9.61     0.007 A 
ATOM     74  CE2 PHE A  77      -5.676   6.985  19.214  1.00  1.00     0.001 A 
ATOM     75  CZ  PHE A  77      -4.536   7.580  18.699  1.00  1.92     0.000 A 
ATOM     76  CE1 PHE A  77      -4.589   8.874  18.234  1.00  9.25     0.001 A 
ATOM     77  CD1 PHE A  77      -5.792   9.577  18.287  1.00  9.63     0.007 A 
ENDBRANCH  71  72
ENDBRANCH  70  71
END_RES PHE A  77
BEGIN_RES LEU A  96
REMARK  2 active torsions:
REMARK  status: ('A' for Active; 'I' for Inactive)
REMARK   25  A    between atoms: CA   and  CB  
REMARK   26  A    between atoms: CB   and  CG  
ROOT
ATOM     78  CA  LEU A  96       0.717   6.481  17.359  1.00 16.08     0.177 C 
ENDROOT
BRANCH  78  79
ATOM     79  CB  LEU A  96      -0.370   7.101  18.230  1.00 18.83     0.038 C 
BRANCH  79  80
ATOM     80  CG  LEU A  96      -0.127   6.976  19.734  1.00 19.03    -0.020 C 
ATOM     81  CD1 LEU A  96      -1.246   7.676  20.469  1.00 28.17     0.009 C 
ATOM     82  CD2 LEU A  96      -0.118   5.523  20.148  1.00 22.01     0.009 C 
ENDBRANCH  79  80
ENDBRANCH  78  79
END_RES LEU A  96
BEGIN_RES VAL A  98
REMARK  1 active torsions:
REMARK  status: ('A' for Active; 'I' for Inactive)
REMARK   27  A    between atoms: CA   and  CB  
ROOT
ATOM     83  CA  VAL A  98      -3.928   2.082  14.897  1.00 19.83     0.180 C 
ENDROOT
BRANCH  83  84
ATOM     84  CB  VAL A  98      -5.203   2.807  15.281  1.00 17.87     0.009 C 
ATOM     85  CG2 VAL A  98      -5.291   2.939  16.779  1.00 29.90     0.012 C 
ATOM     86  CG1 VAL A  98      -6.398   2.053  14.737  1.00 14.79     0.012 C 
ENDBRANCH  83  84
END_RES VAL A  98
BEGIN_RES ASN A 112
REMARK  2 active torsions:
REMARK  status: ('A' for Active; 'I' for Inactive)
REMARK   28  A    between atoms: CA   and  CB  
REMARK   29  A    between atoms: CB   and  CG  
REMARK       I    between atoms: CG   and  ND2 
ROOT
ATOM     87  CA  ASN A 112     -11.790  -8.793  14.069  1.00 37.70     0.185 C 
ENDROOT
BRANCH  87  88
ATOM     88  CB  ASN A 112     -12.992  -7.945  14.465  1.00 26.24     0.137 C 
BRANCH  88  89
ATOM     89  CG  ASN A 112     -13.792  -8.544  15.599  1.00 21.77     0.217 C 
ATOM     90  ND2 ASN A 112     -14.930  -9.151  15.261  1.00  9.31    -0.370 N 
ATOM     91  H04 ASN A 112     -15.511  -9.569  15.973  1.00  9.31     0.159 HD
ATOM     92  H05 ASN A 112     -15.211  -9.191  14.291  1.00  9.31     0.159 HD
ATOM     93  OD1 ASN A 112     -13.399  -8.462  16.769  1.00 21.61    -0.274 OA
ENDBRANCH  88  89
ENDBRANCH  87  88
END_RES ASN A 112
BEGIN_RES PHE A 114
REMARK  2 active torsions:
REMARK  status: ('A' for Active; 'I' for Inactive)
REMARK   30  A    between atoms: CA   and  CB  
REMARK   31  A    between atoms: CB   and  CG  
ROOT
ATOM     94  CA  PHE A 114      -7.754  -3.619  17.012  1.00 26.06     0.180 C 
ENDROOT
BRANCH  94  95
ATOM     95  CB  PHE A 114      -8.890  -3.080  17.867  1.00 19.95     0.073 C 
BRANCH  95  96
ATOM     96  CG  PHE A 114      -8.729  -1.638  18.225  1.00 17.65    -0.056 A 
ATOM     97  CD1 PHE A 114      -9.167  -1.156  19.455  1.00 13.01     0.007 A 
ATOM     98  CE1 PHE A 114      -9.044   0.189  19.777  1.00  6.74     0.001 A 
ATOM     99  CZ  PHE A 114      -8.476   1.075  18.866  1.00  6.27     0.000 A 
ATOM    100  CE2 PHE A 114      -8.036   0.607  17.639  1.00 17.36     0.001 A 
ATOM    101  CD2 PHE A 114      -8.164  -0.750  17.321  1.00 18.39     0.007 A 
ENDBRANCH  95  96
ENDBRANCH  94  95
END_RES PHE A 114
BEGIN_RES VAL A 116
REMARK  1 active torsions:
REMARK  status: ('A' for Active; 'I' for Inactive)
REMARK   32  A    between atoms: CA   and  CB  
ROOT
ATOM    102  CA  VAL A 116      -2.467   0.283  18.565  1.00 13.48     0.180 C 
ENDROOT
BRANCH 102 103
ATOM    103  CB  VAL A 116      -3.101   1.238  19.599  1.00 20.86     0.009 C 
ATOM    104  CG1 VAL A 116      -2.764   2.686  19.233  1.00 25.01     0.012 C 
ATOM    105  CG2 VAL A 116      -4.593   1.020  19.689  1.00 25.34     0.012 C 
ENDBRANCH 102 103
END_RES VAL A 116
BEGIN_RES ILE A 123
REMARK  2 active torsions:
REMARK  status: ('A' for Active; 'I' for Inactive)
REMARK   33  A    between atoms: CA   and  CB  
REMARK   34  A    between atoms: CB   and  CG1 
ROOT
ATOM    106  CA  ILE A 123       1.557  -1.626  23.222  1.00 15.07     0.180 C 
ENDROOT
BRANCH 106 107
ATOM    107  CB  ILE A 123       1.697  -0.112  23.461  1.00 14.41     0.013 C 
ATOM    108  CG2 ILE A 123       3.116   0.214  23.894  1.00 18.35     0.012 C 
BRANCH 107 109
ATOM    109  CG1 ILE A 123       1.341   0.660  22.193  1.00 15.23     0.002 C 
ATOM    110  CD1 ILE A 123       0.246   1.680  22.392  1.00 14.67     0.005 C 
ENDBRANCH 107 109
ENDBRANCH 106 107
END_RES ILE A 123
BEGIN_RES LEU A 124
REMARK  2 active torsions:
REMARK  status: ('A' for Active; 'I' for Inactive)
REMARK   35  A    between atoms: CA   and  CB  
REMARK   36  A    between atoms: CB   and  CG  
ROOT
ATOM    111  CA  LEU A 124      -2.057  -2.686  23.524  1.00 11.86     0.177 C 
ENDROOT
BRANCH 111 112
ATOM    112  CB  LEU A 124      -2.698  -1.652  24.429  1.00 14.60     0.038 C 
BRANCH 112 113
ATOM    113  CG  LEU A 124      -2.585  -0.246  23.860  1.00 16.19    -0.020 C 
ATOM    114  CD1 LEU A 124      -3.944   0.164  23.260  1.00 22.07     0.009 C 
ATOM    115  CD2 LEU A 124      -2.141   0.702  24.946  1.00  9.12     0.009 C 
ENDBRANCH 112 113
ENDBRANCH 111 112
END_RES LEU A 124
BEGIN_RES PHE A 126
REMARK  2 active torsions:
REMARK  status: ('A' for Active; 'I' for Inactive)
REMARK   37  A    between atoms: CA   and  CB  
REMARK   38  A    between atoms: CB   and  CG  
ROOT
ATOM    116  CA  PHE A 126      -8.784  -4.792  22.233  1.00 23.15     0.180 C 
ENDROOT
BRANCH 116 117
ATOM    117  CB  PHE A 126      -9.823  -4.011  21.461  1.00 20.65     0.073 C 
BRANCH 117 118
ATOM    118  CG  PHE A 126     -10.866  -3.409  22.319  1.00 23.65    -0.056 A 
ATOM    119  CD2 PHE A 126     -12.054  -4.075  22.559  1.00 36.63     0.007 A 
ATOM    120  CE2 PHE A 126     -13.041  -3.504  23.374  1.00 36.27     0.001 A 
ATOM    121  CZ  PHE A 126     -12.829  -2.259  23.947  1.00 18.06     0.000 A 
ATOM    122  CE1 PHE A 126     -11.643  -1.592  23.712  1.00  5.50     0.001 A 
ATOM    123  CD1 PHE A 126     -10.666  -2.169  22.902  1.00 15.29     0.007 A 
ENDBRANCH 117 118
ENDBRANCH 116 117
END_RES PHE A 126
BEGIN_RES TRP A 131
REMARK  2 active torsions:
REMARK  status: ('A' for Active; 'I' for Inactive)
REMARK   39  A    between atoms: CA   and  CB  
REMARK   40  A    between atoms: CB   and  CG  
ROOT
ATOM    124  CA  TRP A 131      -8.096  -3.335  26.542  1.00 14.52     0.181 C 
ENDROOT
BRANCH 124 125
ATOM    125  CB  TRP A 131      -7.651  -1.877  26.607  1.00 13.06     0.075 C 
BRANCH 125 126
ATOM    126  CG  TRP A 131      -7.854  -1.108  25.320  1.00 16.97    -0.028 A 
ATOM    127  CD2 TRP A 131      -8.774  -0.034  25.106  1.00 11.34    -0.002 A 
ATOM    128  CE2 TRP A 131      -8.625   0.390  23.771  1.00  5.87     0.042 A 
ATOM    129  CE3 TRP A 131      -9.714   0.609  25.918  1.00  3.80     0.014 A 
ATOM    130  CZ2 TRP A 131      -9.379   1.433  23.230  1.00  1.35     0.030 A 
ATOM    131  NE1 TRP A 131      -7.658  -0.390  23.197  1.00 13.90    -0.365 N 
ATOM    132  CH2 TRP A 131     -10.292   2.047  24.050  1.00  1.00     0.002 A 
ATOM    133  CZ3 TRP A 131     -10.465   1.642  25.387  1.00  1.00     0.001 A 
ATOM    134  CD1 TRP A 131      -7.199  -1.287  24.133  1.00 17.22     0.096 A 
ATOM    135  H07 TRP A 131      -7.335  -0.319  22.243  1.00 13.90     0.165 HD
ENDBRANCH 125 126
ENDBRANCH 124 125
END_RES TRP A 131
BEGIN_RES LEU A 148
REMARK  2 active torsions:
REMARK  status: ('A' for Active; 'I' for Inactive)
REMARK   41  A    between atoms: CA   and  CB  
REMARK   42  A    between atoms: CB   and  CG  
ROOT
ATOM    136  CA  LEU A 148      -9.018   3.259  29.295  1.00 16.99     0.177 C 
ENDROOT
BRANCH 136 137
ATOM    137  CB  LEU A 148      -8.166   2.574  28.236  1.00  6.39     0.038 C 
BRANCH 137 138
ATOM    138  CG  LEU A 148      -7.387   3.380  27.217  1.00  1.00    -0.020 C 
ATOM    139  CD2 LEU A 148      -5.932   3.015  27.265  1.00  1.00     0.009 C 
ATOM    140  CD1 LEU A 148      -7.578   4.853  27.529  1.00  2.71     0.009 C 
ENDBRANCH 137 138
ENDBRANCH 136 137
END_RES LEU A 148
BEGIN_RES THR A 154
REMARK  2 active torsions:
REMARK  status: ('A' for Active; 'I' for Inactive)
REMARK   43  A    between atoms: CA   and  CB  
REMARK   44  A    between atoms: CB   and  OG1 
ROOT
ATOM    141  CA  THR A 154     -15.990   3.959  24.426  1.00 20.45     0.205 C 
ENDROOT
BRANCH 141 142
ATOM    142  CB  THR A 154     -14.777   4.829  24.694  1.00 16.79     0.146 C 
ATOM    143  CG2 THR A 154     -13.561   3.963  24.965  1.00 20.24     0.042 C 
BRANCH 142 144
ATOM    144  OG1 THR A 154     -14.521   5.638  23.539  1.00 18.84    -0.393 OA
ATOM    145  H06 THR A 154     -14.773   5.156  22.748  1.00 18.84     0.210 HD
ENDBRANCH 142 144
ENDBRANCH 141 142
END_RES THR A 154
BEGIN_RES VAL A 158
REMARK  1 active torsions:
REMARK  status: ('A' for Active; 'I' for Inactive)
REMARK   45  A    between atoms: CA   and  CB  
ROOT
ATOM    146  CA  VAL A 158     -15.487  -0.189  19.892  1.00 15.49     0.180 C 
ENDROOT
BRANCH 146 147
ATOM    147  CB  VAL A 158     -14.291  -0.273  20.822  1.00  6.52     0.009 C 
ATOM    148  CG1 VAL A 158     -13.322  -1.336  20.359  1.00  1.00     0.012 C 
ATOM    149  CG2 VAL A 158     -13.624   1.067  20.869  1.00  5.99     0.012 C 
ENDBRANCH 146 147
END_RES VAL A 158
BEGIN_RES LEU A 161
REMARK  2 active torsions:
REMARK  status: ('A' for Active; 'I' for Inactive)
REMARK   46  A    between atoms: CA   and  CB  
REMARK   47  A    between atoms: CB   and  CG  
ROOT
ATOM    150  CA  LEU A 161     -18.031  -1.858  15.935  1.00 13.31     0.177 C 
ENDROOT
BRANCH 150 151
ATOM    151  CB  LEU A 161     -17.046  -0.706  16.001  1.00 14.13     0.038 C 
BRANCH 151 152
ATOM    152  CG  LEU A 161     -17.432   0.556  15.241  1.00 19.39    -0.020 C 
ATOM    153  CD2 LEU A 161     -18.664   1.179  15.852  1.00 27.75     0.009 C 
ATOM    154  CD1 LEU A 161     -17.696   0.197  13.803  1.00 18.59     0.009 C 
ENDBRANCH 151 152
ENDBRANCH 150 151
END_RES LEU A 161
BEGIN_RES GLN A 168
REMARK  3 active torsions:
REMARK  status: ('A' for Active; 'I' for Inactive)
REMARK   48  A    between atoms: CA   and  CB  
REMARK   49  A    between atoms: CB   and  CG  
REMARK   50  A    between atoms: CG   and  CD  
REMARK       I    between atoms: CD   and  NE2 
ROOT
ATOM    155  CA  GLN A 168     -22.035  -6.020   8.155  1.00 30.94     0.177 C 
ENDROOT
BRANCH 155 156
ATOM    156  CB  GLN A 168     -23.054  -5.218   8.946  1.00 41.76     0.044 C 
BRANCH 156 157
ATOM    157  CG  GLN A 168     -24.440  -5.804   8.952  1.00 61.20     0.105 C 
BRANCH 157 158
ATOM    158  CD  GLN A 168     -25.041  -5.849   7.561  1.00 75.49     0.215 C 
ATOM    159  NE2 GLN A 168     -25.398  -7.054   7.112  1.00 85.00    -0.370 N 
ATOM    160  H06 GLN A 168     -25.802  -7.150   6.191  1.00 85.00     0.159 HD
ATOM    161  H07 GLN A 168     -25.264  -7.870   7.693  1.00 85.00     0.159 HD
ATOM    162  OE1 GLN A 168     -25.179  -4.817   6.890  1.00 73.64    -0.274 OA
ENDBRANCH 157 158
ENDBRANCH 156 157
ENDBRANCH 155 156
END_RES GLN A 168
ENDMDL
MODEL 4
REMARK VINA RESULT:      -5.5      1.626      2.247
REMARK  Name = human_CD1d_Tyloxapol_pred.rank_0
REMARK  175 active torsions:
REMARK  status: ('A' for Active; 'I' for Inactive)
REMARK    1  A    between atoms: C_1  and  C_3
REMARK    2  A    between atoms: C_3  and  O_4
REMARK    3  A    between atoms: O_4  and  C_5
REMARK    4  A    between atoms: C_5  and  C_7
REMARK    5  A    between atoms: O_6  and  C_7
REMARK    6  A    between atoms: O_6  and  C_9
REMARK    7  A    between atoms: O_8  and  C_11
REMARK    8  A    between atoms: O_8  and  C_13
REMARK    9  A    between atoms: C_9  and  C_11
REMARK   10  A    between atoms: O_10  and  C_15
REMARK   11  A    between atoms: O_10  and  C_17
REMARK   12  A    between atoms: O_12  and  C_19
REMARK   13  A    between atoms: O_12  and  C_21
REMARK   14  A    between atoms: C_13  and  C_15
REMARK   15  A    between atoms: O_14  and  C_23
REMARK   16  A    between atoms: O_14  and  C_25
REMARK   17  A    between atoms: O_16  and  C_27
REMARK   18  A    between atoms: O_16  and  C_29
REMARK   19  A    between atoms: C_17  and  C_19
REMARK   20  A    between atoms: O_18  and  C_37
REMARK   21  A    between atoms: O_18  and  C_39
REMARK   22  A    between atoms: O_20  and  C_41
REMARK   23  A    between atoms: O_20  and  C_43
REMARK   24  A    between atoms: C_21  and  C_23
REMARK   25  A    between atoms: O_22  and  C_49
REMARK   26  A    between atoms: O_22  and  C_51
REMARK   27  A    between atoms: O_24  and  C_53
REMARK   28  A    between atoms: O_24  and  C_55
REMARK   29  A    between atoms: C_25  and  C_27
REMARK   30  A    between atoms: O_26  and  C_57
REMARK   31  A    between atoms: O_26  and  C_59
REMARK   32  A    between atoms: O_28  and  C_61
REMARK   33  A    between atoms: O_28  and  C_63
REMARK   34  A    between atoms: C_29  and  C_31
REMARK   35  A    between atoms: O_30  and  C_65
REMARK   36  A    between atoms: O_30  and  C_67
REMARK   37  A    between atoms: C_31  and  C_33
REMARK   38  A    between atoms: O_32  and  C_69
REMARK   39  A    between atoms: O_32  and  C_71
REMARK   40  A    between atoms: C_33  and  C_35
REMARK   41  A    between atoms: O_34  and  C_73
REMARK   42  A    between atoms: O_34  and  C_75
REMARK   43  A    between atoms: C_35  and  C_37
REMARK   44  A    between atoms: O_36  and  C_77
REMARK   45  A    between atoms: O_36  and  C_79
REMARK   46  A    between atoms: O_38  and  C_81
REMARK   47  A    between atoms: O_38  and  C_83
REMARK   48  A    between atoms: C_39  and  C_41
REMARK   49  A    between atoms: O_40  and  C_85
REMARK   50  A    between atoms: O_40  and  C_87
REMARK   51  A    between atoms: C_43  and  C_45
REMARK   52  A    between atoms: C_43  and  C_163
REMARK   53  A    between atoms: O_44  and  C_116
REMARK   54  A    between atoms: O_44  and  C_117
REMARK   55  A    between atoms: C_45  and  C_47
REMARK   56  A    between atoms: C_45  and  C_150
REMARK   57  A    between atoms: O_46  and  C_118
REMARK   58  A    between atoms: O_46  and  C_119
REMARK   59  A    between atoms: O_48  and  C_120
REMARK   60  A    between atoms: O_48  and  C_121
REMARK   61  A    between atoms: O_50  and  C_122
REMARK   62  A    between atoms: O_50  and  C_123
REMARK   63  A    between atoms: C_51  and  C_53
REMARK   64  A    between atoms: O_52  and  C_124
REMARK   65  A    between atoms: O_52  and  C_125
REMARK   66  A    between atoms: O_54  and  C_126
REMARK   67  A    between atoms: O_54  and  C_127
REMARK   68  A    between atoms: C_55  and  C_57
REMARK   69  A    between atoms: O_56  and  C_128
REMARK   70  A    between atoms: O_56  and  C_129
REMARK   71  A    between atoms: O_58  and  C_130
REMARK   72  A    between atoms: O_58  and  C_131
REMARK   73  A    between atoms: C_59  and  C_61
REMARK   74  A    between atoms: O_60  and  C_132
REMARK   75  A    between atoms: O_60  and  C_133
REMARK   76  A    between atoms: O_62  and  C_134
REMARK   77  A    between atoms: O_62  and  C_135
REMARK   78  A    between atoms: C_63  and  C_65
REMARK   79  A    between atoms: O_66  and  C_180
REMARK   80  A    between atoms: O_66  and  C_181
REMARK   81  A    between atoms: C_67  and  C_69
REMARK   82  A    between atoms: O_68  and  C_182
REMARK   83  A    between atoms: O_68  and  C_183
REMARK   84  A    between atoms: O_70  and  C_184
REMARK   85  A    between atoms: O_70  and  C_185
REMARK   86  A    between atoms: C_71  and  C_73
REMARK   87  A    between atoms: O_72  and  C_186
REMARK   88  A    between atoms: O_72  and  C_187
REMARK   89  A    between atoms: O_74  and  C_188
REMARK   90  A    between atoms: O_74  and  C_189
REMARK   91  A    between atoms: C_75  and  C_77
REMARK   92  A    between atoms: O_76  and  C_190
REMARK   93  A    between atoms: O_76  and  C_191
REMARK   94  A    between atoms: O_78  and  C_192
REMARK   95  A    between atoms: O_78  and  C_193
REMARK   96  A    between atoms: C_79  and  C_81
REMARK   97  A    between atoms: O_80  and  C_194
REMARK   98  A    between atoms: O_80  and  C_195
REMARK   99  A    between atoms: O_82  and  C_196
REMARK  100  A    between atoms: O_82  and  C_197
REMARK  101  A    between atoms: C_83  and  C_85
REMARK  102  A    between atoms: O_84  and  C_198
REMARK  103  A    between atoms: O_84  and  C_199
REMARK  104  A    between atoms: C_87  and  C_89
REMARK  105  A    between atoms: O_88  and  C_215
REMARK  106  A    between atoms: O_88  and  C_216
REMARK  107  A    between atoms: O_90  and  C_217
REMARK  108  A    between atoms: O_90  and  C_218
REMARK  109  A    between atoms: O_92  and  C_219
REMARK  110  A    between atoms: O_92  and  C_220
REMARK  111  A    between atoms: O_94  and  C_221
REMARK  112  A    between atoms: O_94  and  C_222
REMARK  113  A    between atoms: O_96  and  C_223
REMARK  114  A    between atoms: O_96  and  C_224
REMARK  115  A    between atoms: C_97  and  C_99
REMARK  116  A    between atoms: O_98  and  C_225
REMARK  117  A    between atoms: O_98  and  C_226
REMARK  118  A    between atoms: C_99  and  C_105
REMARK  119  A    between atoms: O_100  and  C_227
REMARK  120  A    between atoms: O_100  and  C_228
REMARK  121  A    between atoms: O_102  and  C_229
REMARK  122  A    between atoms: O_102  and  C_230
REMARK  123  A    between atoms: O_104  and  C_231
REMARK  124  A    between atoms: O_104  and  C_232
REMARK  125  A    between atoms: C_105  and  C_107
REMARK  126  A    between atoms: O_106  and  C_233
REMARK  127  A    between atoms: O_106  and  C_234
REMARK  128  A    between atoms: C_117  and  C_118
REMARK  129  A    between atoms: C_119  and  C_120
REMARK  130  A    between atoms: C_121  and  C_122
REMARK  131  A    between atoms: C_123  and  C_124
REMARK  132  A    between atoms: C_125  and  C_126
REMARK  133  A    between atoms: C_127  and  C_128
REMARK  134  A    between atoms: C_129  and  C_130
REMARK  135  A    between atoms: C_131  and  C_132
REMARK  136  A    between atoms: C_133  and  C_134
REMARK  137  A    between atoms: C_135  and  C_136
REMARK  138  A    between atoms: C_138  and  C_139
REMARK  139  A    between atoms: C_139  and  C_142
REMARK  140  A    between atoms: C_142  and  C_145
REMARK  141  A    between atoms: C_150  and  C_151
REMARK  142  A    between atoms: C_151  and  C_152
REMARK  143  A    between atoms: C_152  and  C_155
REMARK  144  A    between atoms: C_155  and  C_158
REMARK  145  A    between atoms: C_163  and  C_164
REMARK  146  A    between atoms: C_166  and  C_167
REMARK  147  A    between atoms: C_167  and  C_168
REMARK  148  A    between atoms: C_168  and  C_171
REMARK  149  A    between atoms: C_178  and  C_179
REMARK  150  A    between atoms: C_179  and  C_180
REMARK  151  A    between atoms: C_179  and  C_214
REMARK  152  A    between atoms: C_181  and  C_182
REMARK  153  A    between atoms: C_183  and  C_184
REMARK  154  A    between atoms: C_185  and  C_186
REMARK  155  A    between atoms: C_187  and  C_188
REMARK  156  A    between atoms: C_189  and  C_190
REMARK  157  A    between atoms: C_191  and  C_192
REMARK  158  A    between atoms: C_193  and  C_194
REMARK  159  A    between atoms: C_195  and  C_196
REMARK  160  A    between atoms: C_197  and  C_198
REMARK  161  A    between atoms: C_199  and  C_200
REMARK  162  A    between atoms: C_203  and  C_204
REMARK  163  A    between atoms: C_203  and  C_214
REMARK  164  A    between atoms: C_204  and  C_207
REMARK  165  A    between atoms: C_207  and  C_210
REMARK  166  A    between atoms: C_216  and  C_217
REMARK  167  A    between atoms: C_218  and  C_219
REMARK  168  A    between atoms: C_220  and  C_221
REMARK  169  A    between atoms: C_222  and  C_223
REMARK  170  A    between atoms: C_224  and  C_225
REMARK  171  A    between atoms: C_226  and  C_227
REMARK  172  A    between atoms: C_228  and  C_229
REMARK  173  A    between atoms: C_230  and  C_231
REMARK  174  A    between atoms: C_232  and  C_233
REMARK  175  A    between atoms: C_234  and  C_235
REMARK                            x       y       z     vdW  Elec       q    Type
REMARK                         _______ _______ _______ _____ _____    ______ ____
ROOT
ATOM      1  C   UNL     1     -13.088  11.289  27.597  0.00  0.00    +0.000 C 
ENDROOT
BRANCH   1   2
ATOM      2  C   UNL     1     -12.802  10.159  26.026  0.00  0.00    +0.000 C 
BRANCH   2   3
ATOM      3  C   UNL     1     -12.650   8.613  26.206  0.00  0.00    +0.000 C 
ATOM      4  C   UNL     1     -11.880   8.227  27.619  0.00  0.00    +0.000 C 
ATOM      5  C   UNL     1     -10.388   8.004  27.412  0.00  0.00    +0.000 C 
ATOM      6  C   UNL     1     -10.216   6.568  26.432  0.00  0.00    +0.000 C 
ATOM      7  C   UNL     1     -10.407   6.641  24.972  0.00  0.00    +0.000 C 
ATOM      8  C   UNL     1     -11.881   7.552  24.637  0.00  0.00    +0.000 C 
BRANCH   5   9
ATOM      9  C   UNL     1      -9.589   7.909  28.825  0.00  0.00    +0.000 C 
ATOM     10  C   UNL     1     -10.350   7.498  29.681  0.00  0.00    +0.000 C 
ATOM     11  C   UNL     1      -8.261   7.088  28.522  0.00  0.00    +0.000 C 
BRANCH   9  12
ATOM     12  C   UNL     1      -8.983   9.358  29.313  0.00  0.00    +0.000 C 
ATOM     13  C   UNL     1      -9.223   9.578  30.828  0.00  0.00    +0.000 C 
ATOM     14  C   UNL     1      -9.973  10.639  28.775  0.00  0.00    +0.000 C 
BRANCH  12  15
ATOM     15  C   UNL     1      -7.654   9.838  28.823  0.00  0.00    +0.000 C 
ATOM     16  C   UNL     1      -6.842   9.540  30.076  0.00  0.00    +0.000 C 
ATOM     17  C   UNL     1      -7.508  11.286  28.576  0.00  0.00    +0.000 C 
ATOM     18  C   UNL     1      -7.181   9.121  27.630  0.00  0.00    +0.000 C 
ENDBRANCH  12  15
ENDBRANCH   9  12
ENDBRANCH   5   9
BRANCH   7  19
ATOM     19  C   UNL     1      -9.861   5.414  24.125  0.00  0.00    +0.000 C 
BRANCH  19  20
ATOM     20  C   UNL     1     -10.277   5.464  22.611  0.00  0.00    +0.000 C 
ATOM     21  C   UNL     1      -9.553   6.627  21.821  0.00  0.00    +0.000 C 
BRANCH  20  22
ATOM     22  O   UNL     1      -9.787   4.245  21.941  0.00  0.00    +0.000 OA
BRANCH  22  23
ATOM     23  C   UNL     1      -9.968   4.209  20.552  0.00  0.00    +0.000 C 
BRANCH  23  24
ATOM     24  C   UNL     1     -11.446   4.085  20.213  0.00  0.00    +0.000 C 
BRANCH  24  25
ATOM     25  O   UNL     1     -11.652   4.532  18.913  0.00  0.00    +0.000 OA
BRANCH  25  26
ATOM     26  C   UNL     1     -11.731   3.475  17.969  0.00  0.00    +0.000 C 
BRANCH  26  27
ATOM     27  C   UNL     1     -11.552   3.979  16.602  0.00  0.00    +0.000 C 
BRANCH  27  28
ATOM     28  O   UNL     1     -10.236   3.810  16.222  0.00  0.00    +0.000 OA
BRANCH  28  29
ATOM     29  C   UNL     1     -10.053   3.484  14.859  0.00  0.00    +0.000 C 
BRANCH  29  30
ATOM     30  C   UNL     1     -11.314   2.839  14.334  0.00  0.00    +0.000 C 
BRANCH  30  31
ATOM     31  O   UNL     1     -11.240   2.825  12.942  0.00  0.00    +0.000 OA
BRANCH  31  32
ATOM     32  C   UNL     1     -12.219   1.933  12.379  0.00  0.00    +0.000 C 
BRANCH  32  33
ATOM     33  C   UNL     1     -13.603   2.382  12.874  0.00  0.00    +0.000 C 
BRANCH  33  34
ATOM     34  O   UNL     1     -14.439   2.520  11.771  0.00  0.00    +0.000 OA
BRANCH  34  35
ATOM     35  C   UNL     1     -15.794   2.888  12.100  0.00  0.00    +0.000 C 
BRANCH  35  36
ATOM     36  C   UNL     1     -15.895   4.308  12.571  0.00  0.00    +0.000 C 
BRANCH  36  37
ATOM     37  O   UNL     1     -17.316   4.615  12.676  0.00  0.00    +0.000 OA
BRANCH  37  38
ATOM     38  C   UNL     1     -17.980   3.629  13.426  0.00  0.00    +0.000 C 
BRANCH  38  39
ATOM     39  C   UNL     1     -19.438   3.836  13.524  0.00  0.00    +0.000 C 
BRANCH  39  40
ATOM     40  O   UNL     1     -20.103   2.499  13.340  0.00  0.00    +0.000 OA
BRANCH  40  41
ATOM     41  C   UNL     1     -21.509   2.598  13.352  0.00  0.00    +0.000 C 
BRANCH  41  42
ATOM     42  C   UNL     1     -22.080   2.110  14.637  0.00  0.00    +0.000 C 
BRANCH  42  43
ATOM     43  O   UNL     1     -23.448   2.030  14.571  0.00  0.00    +0.000 OA
BRANCH  43  44
ATOM     44  C   UNL     1     -23.977   1.349  13.469  0.00  0.00    +0.000 C 
BRANCH  44  45
ATOM     45  C   UNL     1     -25.273   0.691  13.787  0.00  0.00    +0.000 C 
BRANCH  45  46
ATOM     46  O   UNL     1     -26.288   1.700  13.755  0.00  0.00    +0.000 OA
BRANCH  46  47
ATOM     47  C   UNL     1     -27.433   1.193  13.089  0.00  0.00    +0.000 C 
BRANCH  47  48
ATOM     48  C   UNL     1     -27.207   1.362  11.529  0.00  0.00    +0.000 C 
BRANCH  48  49
ATOM     49  O   UNL     1     -27.147   2.710  11.217  0.00  0.00    +0.000 OA
BRANCH  49  50
ATOM     50  C   UNL     1     -28.270   3.458  11.540  0.00  0.00    +0.000 C 
BRANCH  50  52
ATOM     51  O   UNL     1     -28.514   5.217   9.948  0.00  0.00    +0.000 OA
ATOM     52  C   UNL     1     -27.994   4.950  11.265  0.00  0.00    +0.000 C 
ENDBRANCH  50  52
ENDBRANCH  49  50
ENDBRANCH  48  49
ENDBRANCH  47  48
ENDBRANCH  46  47
ENDBRANCH  45  46
ENDBRANCH  44  45
ENDBRANCH  43  44
ENDBRANCH  42  43
ENDBRANCH  41  42
ENDBRANCH  40  41
ENDBRANCH  39  40
ENDBRANCH  38  39
ENDBRANCH  37  38
ENDBRANCH  36  37
ENDBRANCH  35  36
ENDBRANCH  34  35
ENDBRANCH  33  34
ENDBRANCH  32  33
ENDBRANCH  31  32
ENDBRANCH  30  31
ENDBRANCH  29  30
ENDBRANCH  28  29
ENDBRANCH  27  28
ENDBRANCH  26  27
ENDBRANCH  25  26
ENDBRANCH  24  25
ENDBRANCH  23  24
ENDBRANCH  22  23
ENDBRANCH  20  22
ENDBRANCH  19  20
BRANCH  19  53
ATOM     53  C   UNL     1      -8.262   5.181  24.103  0.00  0.00    +0.000 C 
BRANCH  53  55
ATOM     54  C   UNL     1      -7.264   7.226  24.778  0.00  0.00    +0.000 C 
ATOM     55  C   UNL     1      -7.237   6.022  23.906  0.00  0.00    +0.000 C 
BRANCH  55  56
ATOM     56  C   UNL     1      -6.113   5.824  22.892  0.00  0.00    +0.000 C 
ATOM     57  C   UNL     1      -6.846   5.403  21.664  0.00  0.00    +0.000 C 
ATOM     58  C   UNL     1      -5.469   7.150  22.604  0.00  0.00    +0.000 C 
BRANCH  56  59
ATOM     59  C   UNL     1      -5.076   4.769  23.383  0.00  0.00    +0.000 C 
ATOM     60  C   UNL     1      -5.558   3.381  23.216  0.00  0.00    +0.000 C 
ATOM     61  C   UNL     1      -4.815   5.044  24.883  0.00  0.00    +0.000 C 
BRANCH  59  62
ATOM     62  C   UNL     1      -3.653   4.870  22.665  0.00  0.00    +0.000 C 
ATOM     63  C   UNL     1      -2.973   3.548  22.643  0.00  0.00    +0.000 C 
ATOM     64  C   UNL     1      -2.749   5.782  23.460  0.00  0.00    +0.000 C 
ATOM     65  C   UNL     1      -3.699   5.448  21.334  0.00  0.00    +0.000 C 
ENDBRANCH  59  62
ENDBRANCH  56  59
ENDBRANCH  55  56
ENDBRANCH  53  55
ENDBRANCH  19  53
ENDBRANCH   7  19
BRANCH   8  66
ATOM     66  O   UNL     1     -12.554   7.623  23.452  0.00  0.00    +0.000 OA
BRANCH  66  67
ATOM     67  C   UNL     1     -12.312   8.773  22.675  0.00  0.00    +0.000 C 
BRANCH  67  68
ATOM     68  C   UNL     1     -12.155   8.574  21.151  0.00  0.00    +0.000 C 
BRANCH  68  69
ATOM     69  O   UNL     1     -12.819   7.398  20.778  0.00  0.00    +0.000 OA
BRANCH  69  70
ATOM     70  C   UNL     1     -14.073   7.656  20.068  0.00  0.00    +0.000 C 
BRANCH  70  71
ATOM     71  C   UNL     1     -14.467   6.466  19.212  0.00  0.00    +0.000 C 
BRANCH  71  72
ATOM     72  O   UNL     1     -14.771   5.268  20.132  0.00  0.00    +0.000 OA
BRANCH  72  73
ATOM     73  C   UNL     1     -15.128   4.122  19.371  0.00  0.00    +0.000 C 
BRANCH  73  74
ATOM     74  C   UNL     1     -15.445   4.559  17.935  0.00  0.00    +0.000 C 
BRANCH  74  75
ATOM     75  O   UNL     1     -15.832   3.473  17.154  0.00  0.00    +0.000 OA
BRANCH  75  76
ATOM     76  C   UNL     1     -15.205   2.244  17.542  0.00  0.00    +0.000 C 
BRANCH  76  77
ATOM     77  C   UNL     1     -14.340   1.685  16.444  0.00  0.00    +0.000 C 
BRANCH  77  78
ATOM     78  O   UNL     1     -13.480   0.759  17.093  0.00  0.00    +0.000 OA
BRANCH  78  79
ATOM     79  C   UNL     1     -13.492  -0.575  16.484  0.00  0.00    +0.000 C 
BRANCH  79  80
ATOM     80  C   UNL     1     -12.976  -0.416  15.105  0.00  0.00    +0.000 C 
BRANCH  80  81
ATOM     81  O   UNL     1     -13.842  -1.028  14.113  0.00  0.00    +0.000 OA
BRANCH  81  82
ATOM     82  C   UNL     1     -13.156  -1.633  13.065  0.00  0.00    +0.000 C 
BRANCH  82  83
ATOM     83  C   UNL     1     -13.845  -1.327  11.720  0.00  0.00    +0.000 C 
BRANCH  83  84
ATOM     84  O   UNL     1     -15.187  -0.956  11.929  0.00  0.00    +0.000 OA
BRANCH  84  85
ATOM     85  C   UNL     1     -15.943  -0.714  10.851  0.00  0.00    +0.000 C 
BRANCH  85  86
ATOM     86  C   UNL     1     -15.058  -0.450   9.615  0.00  0.00    +0.000 C 
BRANCH  86  87
ATOM     87  O   UNL     1     -15.510   0.625   8.833  0.00  0.00    +0.000 OA
BRANCH  87  88
ATOM     88  C   UNL     1     -14.537   1.566   8.542  0.00  0.00    +0.000 C 
BRANCH  88  89
ATOM     89  C   UNL     1     -14.251   1.621   7.050  0.00  0.00    +0.000 C 
BRANCH  89  90
ATOM     90  O   UNL     1     -14.982   2.695   6.467  0.00  0.00    +0.000 OA
BRANCH  90  91
ATOM     91  C   UNL     1     -14.690   3.906   7.195  0.00  0.00    +0.000 C 
BRANCH  91  92
ATOM     92  C   UNL     1     -13.878   4.798   6.291  0.00  0.00    +0.000 C 
BRANCH  92  93
ATOM     93  O   UNL     1     -12.497   4.527   6.514  0.00  0.00    +0.000 OA
BRANCH  93  94
ATOM     94  C   UNL     1     -11.778   5.630   6.914  0.00  0.00    +0.000 C 
BRANCH  94  96
ATOM     95  O   UNL     1      -9.532   5.604   7.768  0.00  0.00    +0.000 OA
ATOM     96  C   UNL     1     -10.290   5.451   6.597  0.00  0.00    +0.000 C 
ENDBRANCH  94  96
ENDBRANCH  93  94
ENDBRANCH  92  93
ENDBRANCH  91  92
ENDBRANCH  90  91
ENDBRANCH  89  90
ENDBRANCH  88  89
ENDBRANCH  87  88
ENDBRANCH  86  87
ENDBRANCH  85  86
ENDBRANCH  84  85
ENDBRANCH  83  84
ENDBRANCH  82  83
ENDBRANCH  81  82
ENDBRANCH  80  81
ENDBRANCH  79  80
ENDBRANCH  78  79
ENDBRANCH  77  78
ENDBRANCH  76  77
ENDBRANCH  75  76
ENDBRANCH  74  75
ENDBRANCH  73  74
ENDBRANCH  72  73
ENDBRANCH  71  72
ENDBRANCH  70  71
ENDBRANCH  69  70
ENDBRANCH  68  69
ENDBRANCH  67  68
ENDBRANCH  66  67
ENDBRANCH   8  66
ENDBRANCH   2   3
ENDBRANCH   1   2
BRANCH   1  97
ATOM     97  C   UNL     1     -14.333  11.350  28.461  0.00  0.00    +0.000 C 
BRANCH  97  98
ATOM     98  C   UNL     1     -15.625  10.719  27.720  0.00  0.00    +0.000 C 
ATOM     99  C   UNL     1     -16.105  11.591  26.521  0.00  0.00    +0.000 C 
ATOM    100  C   UNL     1     -17.376  11.066  25.718  0.00  0.00    +0.000 C 
ATOM    101  C   UNL     1     -18.420  11.120  24.692  0.00  0.00    +0.000 C 
ATOM    102  C   UNL     1     -19.857  10.681  24.848  0.00  0.00    +0.000 C 
ATOM    103  C   UNL     1     -20.819  10.831  23.778  0.00  0.00    +0.000 C 
ATOM    104  C   UNL     1     -20.350  11.484  22.585  0.00  0.00    +0.000 C 
ATOM    105  C   UNL     1     -19.023  11.831  22.356  0.00  0.00    +0.000 C 
ATOM    106  C   UNL     1     -18.193  11.591  23.409  0.00  0.00    +0.000 C 
ATOM    107  C   UNL     1     -17.802  10.545  26.221  0.00  0.00    +0.000 C 
ATOM    108  C   UNL     1     -17.585   9.577  27.139  0.00  0.00    +0.000 C 
ATOM    109  C   UNL     1     -16.197   9.413  27.777  0.00  0.00    +0.000 C 
BRANCH 103 110
ATOM    110  C   UNL     1     -22.228  10.273  23.954  0.00  0.00    +0.000 C 
ATOM    111  C   UNL     1     -22.536   9.597  22.588  0.00  0.00    +0.000 C 
ATOM    112  C   UNL     1     -22.199   9.180  24.919  0.00  0.00    +0.000 C 
BRANCH 110 113
ATOM    113  C   UNL     1     -23.420  11.194  24.301  0.00  0.00    +0.000 C 
ATOM    114  C   UNL     1     -23.911  11.754  23.003  0.00  0.00    +0.000 C 
ATOM    115  C   UNL     1     -24.512  10.362  24.981  0.00  0.00    +0.000 C 
BRANCH 113 116
ATOM    116  C   UNL     1     -23.088  12.370  25.325  0.00  0.00    +0.000 C 
ATOM    117  C   UNL     1     -22.565  11.818  26.636  0.00  0.00    +0.000 C 
ATOM    118  C   UNL     1     -24.328  13.095  25.708  0.00  0.00    +0.000 C 
ATOM    119  C   UNL     1     -22.123  13.353  24.723  0.00  0.00    +0.000 C 
ENDBRANCH 113 116
ENDBRANCH 110 113
ENDBRANCH 103 110
BRANCH 108 120
ATOM    120  C   UNL     1     -18.830   9.064  27.952  0.00  0.00    +0.000 C 
ATOM    121  C   UNL     1     -18.335   7.899  28.825  0.00  0.00    +0.000 C 
ATOM    122  C   UNL     1     -19.763   8.450  26.972  0.00  0.00    +0.000 C 
BRANCH 120 123
ATOM    123  C   UNL     1     -19.508  10.082  29.028  0.00  0.00    +0.000 C 
ATOM    124  C   UNL     1     -18.701  10.285  30.233  0.00  0.00    +0.000 C 
ATOM    125  C   UNL     1     -19.674  11.456  28.428  0.00  0.00    +0.000 C 
BRANCH 123 126
ATOM    126  C   UNL     1     -20.892   9.606  29.590  0.00  0.00    +0.000 C 
ATOM    127  C   UNL     1     -21.607  10.795  30.132  0.00  0.00    +0.000 C 
ATOM    128  C   UNL     1     -20.708   8.677  30.759  0.00  0.00    +0.000 C 
ATOM    129  C   UNL     1     -21.647   8.855  28.560  0.00  0.00    +0.000 C 
ENDBRANCH 123 126
ENDBRANCH 120 123
ENDBRANCH 108 120
BRANCH 106 130
ATOM    130  O   UNL     1     -16.838  11.699  23.200  0.00  0.00    +0.000 OA
BRANCH 130 131
ATOM    131  C   UNL     1     -16.073  10.517  22.863  0.00  0.00    +0.000 C 
BRANCH 131 132
ATOM    132  C   UNL     1     -16.132  10.360  21.355  0.00  0.00    +0.000 C 
BRANCH 132 133
ATOM    133  O   UNL     1     -16.962   9.303  21.017  0.00  0.00    +0.000 OA
BRANCH 133 134
ATOM    134  C   UNL     1     -17.258   9.244  19.631  0.00  0.00    +0.000 C 
BRANCH 134 135
ATOM    135  C   UNL     1     -18.688   9.592  19.408  0.00  0.00    +0.000 C 
BRANCH 135 136
ATOM    136  O   UNL     1     -18.823   9.563  18.270  0.00  0.00    +0.000 OA
BRANCH 136 137
ATOM    137  C   UNL     1     -20.059  10.032  17.858  0.00  0.00    +0.000 C 
BRANCH 137 138
ATOM    138  C   UNL     1     -20.867  10.739  18.999  0.00  0.00    +0.000 C 
BRANCH 138 139
ATOM    139  O   UNL     1     -22.172  10.720  18.643  0.00  0.00    +0.000 OA
BRANCH 139 140
ATOM    140  C   UNL     1     -22.554   9.489  17.991  0.00  0.00    +0.000 C 
BRANCH 140 141
ATOM    141  C   UNL     1     -23.324   8.641  18.954  0.00  0.00    +0.000 C 
BRANCH 141 142
ATOM    142  O   UNL     1     -23.217   7.283  18.588  0.00  0.00    +0.000 OA
BRANCH 142 143
ATOM    143  C   UNL     1     -23.614   7.029  17.243  0.00  0.00    +0.000 C 
BRANCH 143 144
ATOM    144  C   UNL     1     -24.454   5.725  17.182  0.00  0.00    +0.000 C 
BRANCH 144 145
ATOM    145  O   UNL     1     -23.668   4.609  16.734  0.00  0.00    +0.000 OA
BRANCH 145 146
ATOM    146  C   UNL     1     -22.960   3.828  17.708  0.00  0.00    +0.000 C 
BRANCH 146 147
ATOM    147  C   UNL     1     -23.661   2.530  18.022  0.00  0.00    +0.000 C 
BRANCH 147 148
ATOM    148  O   UNL     1     -23.921   2.501  19.438  0.00  0.00    +0.000 OA
BRANCH 148 149
ATOM    149  C   UNL     1     -22.824   2.857  20.263  0.00  0.00    +0.000 C 
BRANCH 149 150
ATOM    150  C   UNL     1     -22.260   1.619  20.927  0.00  0.00    +0.000 C 
BRANCH 150 151
ATOM    151  O   UNL     1     -22.438   1.745  22.345  0.00  0.00    +0.000 OA
BRANCH 151 152
ATOM    152  C   UNL     1     -23.034   0.673  22.987  0.00  0.00    +0.000 C 
BRANCH 152 153
ATOM    153  C   UNL     1     -24.448   1.004  23.431  0.00  0.00    +0.000 C 
BRANCH 153 154
ATOM    154  O   UNL     1     -24.550   2.406  23.673  0.00  0.00    +0.000 OA
BRANCH 154 155
ATOM    155  C   UNL     1     -25.834   2.929  23.482  0.00  0.00    +0.000 C 
BRANCH 155 156
ATOM    156  C   UNL     1     -26.209   2.894  21.979  0.00  0.00    +0.000 C 
BRANCH 156 157
ATOM    157  O   UNL     1     -27.630   3.045  21.894  0.00  0.00    +0.000 OA
BRANCH 157 158
ATOM    158  C   UNL     1     -28.246   2.018  21.164  0.00  0.00    +0.000 C 
BRANCH 158 160
ATOM    159  O   UNL     1     -27.452   2.065  18.822  0.00  0.00    +0.000 OA
ATOM    160  C   UNL     1     -27.215   1.536  20.241  0.00  0.00    +0.000 C 
ENDBRANCH 158 160
ENDBRANCH 157 158
ENDBRANCH 156 157
ENDBRANCH 155 156
ENDBRANCH 154 155
ENDBRANCH 153 154
ENDBRANCH 152 153
ENDBRANCH 151 152
ENDBRANCH 150 151
ENDBRANCH 149 150
ENDBRANCH 148 149
ENDBRANCH 147 148
ENDBRANCH 146 147
ENDBRANCH 145 146
ENDBRANCH 144 145
ENDBRANCH 143 144
ENDBRANCH 142 143
ENDBRANCH 141 142
ENDBRANCH 140 141
ENDBRANCH 139 140
ENDBRANCH 138 139
ENDBRANCH 137 138
ENDBRANCH 136 137
ENDBRANCH 135 136
ENDBRANCH 134 135
ENDBRANCH 133 134
ENDBRANCH 132 133
ENDBRANCH 131 132
ENDBRANCH 130 131
ENDBRANCH 106 130
BRANCH  99 161
ATOM    161  O   UNL     1     -16.052  12.960  26.605  0.00  0.00    +0.000 OA
BRANCH 161 162
ATOM    162  C   UNL     1     -16.713  13.628  27.685  0.00  0.00    +0.000 C 
BRANCH 162 163
ATOM    163  C   UNL     1     -16.168  15.001  28.043  0.00  0.00    +0.000 C 
BRANCH 163 164
ATOM    164  O   UNL     1     -15.440  15.531  26.977  0.00  0.00    +0.000 OA
BRANCH 164 165
ATOM    165  C   UNL     1     -16.170  16.337  26.092  0.00  0.00    +0.000 C 
BRANCH 165 166
ATOM    166  C   UNL     1     -15.830  16.075  24.622  0.00  0.00    +0.000 C 
BRANCH 166 167
ATOM    167  O   UNL     1     -16.676  15.008  24.125  0.00  0.00    +0.000 OA
BRANCH 167 168
ATOM    168  C   UNL     1     -18.008  15.176  24.563  0.00  0.00    +0.000 C 
BRANCH 168 169
ATOM    169  C   UNL     1     -18.941  15.410  23.384  0.00  0.00    +0.000 C 
BRANCH 169 170
ATOM    170  O   UNL     1     -18.281  15.142  22.186  0.00  0.00    +0.000 OA
BRANCH 170 171
ATOM    171  C   UNL     1     -18.882  15.750  21.059  0.00  0.00    +0.000 C 
BRANCH 171 172
ATOM    172  C   UNL     1     -18.092  17.017  20.602  0.00  0.00    +0.000 C 
BRANCH 172 173
ATOM    173  O   UNL     1     -18.556  17.357  19.306  0.00  0.00    +0.000 OA
BRANCH 173 174
ATOM    174  C   UNL     1     -17.696  16.753  18.291  0.00  0.00    +0.000 C 
BRANCH 174 175
ATOM    175  C   UNL     1     -16.246  16.783  18.769  0.00  0.00    +0.000 C 
BRANCH 175 176
ATOM    176  O   UNL     1     -15.431  16.449  17.693  0.00  0.00    +0.000 OA
BRANCH 176 177
ATOM    177  C   UNL     1     -16.032  16.752  16.444  0.00  0.00    +0.000 C 
BRANCH 177 178
ATOM    178  C   UNL     1     -15.023  17.580  15.659  0.00  0.00    +0.000 C 
BRANCH 178 179
ATOM    179  O   UNL     1     -14.971  17.121  14.320  0.00  0.00    +0.000 OA
BRANCH 179 180
ATOM    180  C   UNL     1     -13.774  17.552  13.620  0.00  0.00    +0.000 C 
BRANCH 180 181
ATOM    181  C   UNL     1     -13.255  16.417  12.736  0.00  0.00    +0.000 C 
BRANCH 181 182
ATOM    182  O   UNL     1     -11.993  15.994  13.174  0.00  0.00    +0.000 OA
BRANCH 182 183
ATOM    183  C   UNL     1     -11.489  16.798  14.297  0.00  0.00    +0.000 C 
BRANCH 183 184
ATOM    184  C   UNL     1      -9.967  16.941  14.319  0.00  0.00    +0.000 C 
BRANCH 184 185
ATOM    185  O   UNL     1      -9.609  17.174  15.642  0.00  0.00    +0.000 OA
BRANCH 185 186
ATOM    186  C   UNL     1      -8.446  18.011  15.763  0.00  0.00    +0.000 C 
BRANCH 186 187
ATOM    187  C   UNL     1      -8.374  18.991  14.614  0.00  0.00    +0.000 C 
BRANCH 187 188
ATOM    188  O   UNL     1      -6.927  19.293  14.433  0.00  0.00    +0.000 OA
BRANCH 188 189
ATOM    189  C   UNL     1      -6.185  18.858  15.591  0.00  0.00    +0.000 C 
BRANCH 189 191
ATOM    190  O   UNL     1      -3.919  19.035  16.253  0.00  0.00    +0.000 OA
ATOM    191  C   UNL     1      -4.737  18.741  15.171  0.00  0.00    +0.000 C 
ENDBRANCH 189 191
ENDBRANCH 188 189
ENDBRANCH 187 188
ENDBRANCH 186 187
ENDBRANCH 185 186
ENDBRANCH 184 185
ENDBRANCH 183 184
ENDBRANCH 182 183
ENDBRANCH 181 182
ENDBRANCH 180 181
ENDBRANCH 179 180
ENDBRANCH 178 179
ENDBRANCH 177 178
ENDBRANCH 176 177
ENDBRANCH 175 176
ENDBRANCH 174 175
ENDBRANCH 173 174
ENDBRANCH 172 173
ENDBRANCH 171 172
ENDBRANCH 170 171
ENDBRANCH 169 170
ENDBRANCH 168 169
ENDBRANCH 167 168
ENDBRANCH 166 167
ENDBRANCH 165 166
ENDBRANCH 164 165
ENDBRANCH 163 164
ENDBRANCH 162 163
ENDBRANCH 161 162
ENDBRANCH  99 161
ENDBRANCH  97  98
BRANCH  97 192
ATOM    192  C   UNL     1     -13.666  11.124  29.703  0.00  0.00    +0.000 C 
BRANCH 192 193
ATOM    193  C   UNL     1     -14.242  11.197  31.023  0.00  0.00    +0.000 C 
ATOM    194  C   UNL     1     -15.252  12.188  31.364  0.00  0.00    +0.000 C 
BRANCH 193 195
ATOM    195  C   UNL     1     -13.825  10.288  32.107  0.00  0.00    +0.000 C 
ATOM    196  C   UNL     1     -12.289  10.323  32.144  0.00  0.00    +0.000 C 
ATOM    197  C   UNL     1     -14.307  10.788  33.475  0.00  0.00    +0.000 C 
BRANCH 195 198
ATOM    198  C   UNL     1     -14.368   8.792  31.828  0.00  0.00    +0.000 C 
ATOM    199  C   UNL     1     -13.892   8.271  30.543  0.00  0.00    +0.000 C 
ATOM    200  C   UNL     1     -15.861   8.765  31.860  0.00  0.00    +0.000 C 
BRANCH 198 201
ATOM    201  C   UNL     1     -13.996   7.658  32.856  0.00  0.00    +0.000 C 
ATOM    202  C   UNL     1     -12.716   6.955  32.521  0.00  0.00    +0.000 C 
ATOM    203  C   UNL     1     -15.036   6.572  32.916  0.00  0.00    +0.000 C 
ATOM    204  C   UNL     1     -13.757   8.234  34.170  0.00  0.00    +0.000 C 
ENDBRANCH 198 201
ENDBRANCH 195 198
ENDBRANCH 193 195
ENDBRANCH 192 193
ENDBRANCH  97 192
ENDBRANCH   1  97
BRANCH   1 205
ATOM    205  O   UNL     1     -12.868  12.504  26.911  0.00  0.00    +0.000 OA
BRANCH 205 206
ATOM    206  C   UNL     1     -12.228  13.485  27.695  0.00  0.00    +0.000 C 
BRANCH 206 207
ATOM    207  C   UNL     1     -12.015  14.759  26.929  0.00  0.00    +0.000 C 
BRANCH 207 208
ATOM    208  O   UNL     1     -10.633  14.940  26.595  0.00  0.00    +0.000 OA
BRANCH 208 209
ATOM    209  C   UNL     1      -9.730  14.349  27.554  0.00  0.00    +0.000 C 
BRANCH 209 210
ATOM    210  C   UNL     1      -8.309  14.765  27.271  0.00  0.00    +0.000 C 
BRANCH 210 211
ATOM    211  C   UNL     1      -7.786  15.825  28.241  0.00  0.00    +0.000 C 
BRANCH 211 212
ATOM    212  C   UNL     1      -6.695  16.659  27.608  0.00  0.00    +0.000 C 
BRANCH 212 213
ATOM    213  C   UNL     1      -6.463  17.915  28.382  0.00  0.00    +0.000 C 
BRANCH 213 214
ATOM    214  O   UNL     1      -5.638  18.765  27.731  0.00  0.00    +0.000 OA
BRANCH 214 215
ATOM    215  C   UNL     1      -4.536  18.071  27.082  0.00  0.00    +0.000 C 
BRANCH 215 216
ATOM    216  C   UNL     1      -4.237  18.619  25.703  0.00  0.00    +0.000 C 
BRANCH 216 217
ATOM    217  O   UNL     1      -5.033  18.025  24.778  0.00  0.00    +0.000 OA
BRANCH 217 218
ATOM    218  C   UNL     1      -5.797  18.533  23.601  0.00  0.00    +0.000 C 
BRANCH 218 219
ATOM    219  C   UNL     1      -6.982  19.360  24.203  0.00  0.00    +0.000 C 
BRANCH 219 220
ATOM    220  O   UNL     1      -7.755  18.572  25.028  0.00  0.00    +0.000 OA
BRANCH 220 221
ATOM    221  C   UNL     1      -8.771  19.249  25.790  0.00  0.00    +0.000 C 
BRANCH 221 222
ATOM    222  C   UNL     1      -9.855  18.245  26.176  0.00  0.00    +0.000 C 
BRANCH 222 223
ATOM    223  O   UNL     1     -10.170  18.323  27.543  0.00  0.00    +0.000 OA
BRANCH 223 224
ATOM    224  C   UNL     1     -11.534  18.588  27.813  0.00  0.00    +0.000 C 
BRANCH 224 225
ATOM    225  C   UNL     1     -11.908  17.818  29.084  0.00  0.00    +0.000 C 
BRANCH 225 226
ATOM    226  O   UNL     1     -10.804  17.051  29.556  0.00  0.00    +0.000 OA
BRANCH 226 227
ATOM    227  C   UNL     1     -11.177  16.047  30.482  0.00  0.00    +0.000 C 
BRANCH 227 228
ATOM    228  C   UNL     1      -9.977  15.707  31.328  0.00  0.00    +0.000 C 
BRANCH 228 229
ATOM    229  O   UNL     1      -9.473  14.428  31.053  0.00  0.00    +0.000 OA
BRANCH 229 230
ATOM    230  C   UNL     1     -10.127  13.421  31.778  0.00  0.00    +0.000 C 
BRANCH 230 231
ATOM    231  C   UNL     1     -10.226  13.795  33.226  0.00  0.00    +0.000 C 
BRANCH 231 232
ATOM    232  O   UNL     1     -11.429  13.289  33.750  0.00  0.00    +0.000 OA
BRANCH 232 233
ATOM    233  C   UNL     1     -12.566  14.016  33.341  0.00  0.00    +0.000 C 
BRANCH 233 234
ATOM    234  C   UNL     1     -13.430  14.353  34.536  0.00  0.00    +0.000 C 
ATOM    235  O   UNL     1     -13.035  15.606  35.050  0.00  0.00    +0.000 OA
ENDBRANCH 233 234
ENDBRANCH 232 233
ENDBRANCH 231 232
ENDBRANCH 230 231
ENDBRANCH 229 230
ENDBRANCH 228 229
ENDBRANCH 227 228
ENDBRANCH 226 227
ENDBRANCH 225 226
ENDBRANCH 224 225
ENDBRANCH 223 224
ENDBRANCH 222 223
ENDBRANCH 221 222
ENDBRANCH 220 221
ENDBRANCH 219 220
ENDBRANCH 218 219
ENDBRANCH 217 218
ENDBRANCH 216 217
ENDBRANCH 215 216
ENDBRANCH 214 215
ENDBRANCH 213 214
ENDBRANCH 212 213
ENDBRANCH 211 212
ENDBRANCH 210 211
ENDBRANCH 209 210
ENDBRANCH 208 209
ENDBRANCH 207 208
ENDBRANCH 206 207
ENDBRANCH 205 206
ENDBRANCH   1 205
TORSDOF 175
BEGIN_RES LEU A  10
REMARK  2 active torsions:
REMARK  status: ('A' for Active; 'I' for Inactive)
REMARK    1  A    between atoms: CA   and  CB  
REMARK    2  A    between atoms: CB   and  CG  
ROOT
ATOM      1  CA  LEU A  10     -10.775  -4.871   5.898  1.00 25.14     0.177 C 
ENDROOT
BRANCH   1   2
ATOM      2  CB  LEU A  10     -12.191  -4.387   6.226  1.00 17.87     0.038 C 
BRANCH   2   3
ATOM      3  CG  LEU A  10     -12.794  -3.442   5.184  1.00 24.95    -0.020 C 
ATOM      4  CD2 LEU A  10     -11.784  -2.406   4.825  1.00 26.38     0.009 C 
ATOM      5  CD1 LEU A  10     -14.063  -2.794   5.709  1.00 28.12     0.009 C 
ENDBRANCH   2   3
ENDBRANCH   1   2
END_RES LEU A  10
BEGIN_RES CYS A  12
REMARK  2 active torsions:
REMARK  status: ('A' for Active; 'I' for Inactive)
REMARK    3  A    between atoms: CA   and  CB  
REMARK    4  A    between atoms: CB   and  SG  
ROOT
ATOM      6  CA  CYS A  12      -8.555   0.470   8.750  1.00 23.16     0.185 C 
ENDROOT
BRANCH   6   7
ATOM      7  CB  CYS A  12      -9.828   0.763   9.555  1.00 20.43     0.105 C 
BRANCH   7   8
ATOM      8  SG  CYS A  12     -11.340  -0.081   8.996  1.00 24.64    -0.180 SA
ATOM      9  H04 CYS A  12     -11.138  -0.600   7.778  1.00 24.64     0.101 HD
ENDBRANCH   7   8
ENDBRANCH   6   7
END_RES CYS A  12
BEGIN_RES GLN A  14
REMARK  3 active torsions:
REMARK  status: ('A' for Active; 'I' for Inactive)
REMARK    5  A    between atoms: CA   and  CB  
REMARK    6  A    between atoms: CB   and  CG  
REMARK    7  A    between atoms: CG   and  CD  
REMARK       I    between atoms: CD   and  NE2 
ROOT
ATOM     10  CA  GLN A  14      -4.645   5.402  11.377  1.00 10.43     0.177 C 
ENDROOT
BRANCH  10  11
ATOM     11  CB  GLN A  14      -5.541   5.549  12.608  1.00 14.45     0.044 C 
BRANCH  11  12
ATOM     12  CG  GLN A  14      -6.442   6.762  12.574  1.00 13.74     0.105 C 
BRANCH  12  13
ATOM     13  CD  GLN A  14      -5.816   7.966  13.236  1.00 16.29     0.215 C 
ATOM     14  NE2 GLN A  14      -6.167   8.199  14.482  1.00  8.57    -0.370 N 
ATOM     15  H06 GLN A  14      -5.779   8.989  14.976  1.00  8.57     0.159 HD
ATOM     16  H07 GLN A  14      -6.825   7.587  14.944  1.00  8.57     0.159 HD
ATOM     17  OE1 GLN A  14      -5.023   8.674  12.634  1.00 23.55    -0.274 OA
ENDBRANCH  12  13
ENDBRANCH  11  12
ENDBRANCH  10  11
END_RES GLN A  14
BEGIN_RES SER A  16
REMARK  2 active torsions:
REMARK  status: ('A' for Active; 'I' for Inactive)
REMARK    8  A    between atoms: CA   and  CB  
REMARK    9  A    between atoms: CB   and  OG  
ROOT
ATOM     18  CA  SER A  16      -1.305  10.019  14.282  1.00  2.34     0.200 C 
ENDROOT
BRANCH  18  19
ATOM     19  CB  SER A  16      -2.242   9.935  15.479  1.00  3.12     0.199 C 
BRANCH  19  20
ATOM     20  OG  SER A  16      -1.939   8.794  16.263  1.00  1.00    -0.398 OA
ATOM     21  H04 SER A  16      -1.096   8.429  15.984  1.00  1.00     0.209 HD
ENDBRANCH  19  20
ENDBRANCH  18  19
END_RES SER A  16
BEGIN_RES LEU A  32
REMARK  2 active torsions:
REMARK  status: ('A' for Active; 'I' for Inactive)
REMARK   10  A    between atoms: CA   and  CB  
REMARK   11  A    between atoms: CB   and  CG  
ROOT
ATOM     22  CA  LEU A  32     -10.272  -4.106   1.587  1.00 16.16     0.177 C 
ENDROOT
BRANCH  22  23
ATOM     23  CB  LEU A  32     -11.613  -3.858   0.880  1.00 12.35     0.038 C 
BRANCH  23  24
ATOM     24  CG  LEU A  32     -12.507  -5.115   0.888  1.00  9.77    -0.020 C 
ATOM     25  CD1 LEU A  32     -13.019  -5.387   2.282  1.00  4.35     0.009 C 
ATOM     26  CD2 LEU A  32     -13.669  -4.953  -0.057  1.00 10.60     0.009 C 
ENDBRANCH  23  24
ENDBRANCH  22  23
END_RES LEU A  32
BEGIN_RES HIS A  38
REMARK  2 active torsions:
REMARK  status: ('A' for Active; 'I' for Inactive)
REMARK   12  A    between atoms: CA   and  CB  
REMARK   13  A    between atoms: CB   and  CG  
ROOT
ATOM     27  CA  HIS A  38     -10.959   4.941   1.621  1.00 16.94     0.182 C 
ENDROOT
BRANCH  27  28
ATOM     28  CB  HIS A  38     -11.810   4.840   2.881  1.00 15.47     0.095 C 
BRANCH  28  29
ATOM     29  CG  HIS A  38     -12.955   3.887   2.761  1.00 18.62     0.053 A 
ATOM     30  CD2 HIS A  38     -14.064   3.923   1.983  1.00 15.06     0.116 A 
ATOM     31  NE2 HIS A  38     -14.776   2.781   2.245  1.00 18.12    -0.359 N 
ATOM     32  CE1 HIS A  38     -14.131   2.069   3.150  1.00 14.78     0.207 A 
ATOM     33  H06 HIS A  38     -15.653   2.526   1.814  1.00 18.12     0.166 HD
ATOM     34  ND1 HIS A  38     -13.030   2.714   3.480  1.00 16.58    -0.247 NA
ENDBRANCH  28  29
ENDBRANCH  27  28
END_RES HIS A  38
BEGIN_RES TRP A  63
REMARK  2 active torsions:
REMARK  status: ('A' for Active; 'I' for Inactive)
REMARK   14  A    between atoms: CA   and  CB  
REMARK   15  A    between atoms: CB   and  CG  
ROOT
ATOM     35  CA  TRP A  63     -22.437   6.257   6.543  1.00 27.04     0.181 C 
ENDROOT
BRANCH  35  36
ATOM     36  CB  TRP A  63     -22.360   6.642   5.068  1.00 31.37     0.075 C 
BRANCH  36  37
ATOM     37  CG  TRP A  63     -20.954   6.725   4.512  1.00 34.37    -0.028 A 
ATOM     38  CD2 TRP A  63     -19.890   5.781   4.698  1.00 33.79    -0.002 A 
ATOM     39  CE3 TRP A  63     -19.757   4.597   5.426  1.00 32.99     0.014 A 
ATOM     40  CE2 TRP A  63     -18.791   6.237   3.938  1.00 35.84     0.042 A 
ATOM     41  CZ3 TRP A  63     -18.549   3.916   5.377  1.00 32.93     0.001 A 
ATOM     42  CH2 TRP A  63     -17.474   4.396   4.613  1.00 39.24     0.002 A 
ATOM     43  CZ2 TRP A  63     -17.576   5.552   3.887  1.00 37.99     0.030 A 
ATOM     44  NE1 TRP A  63     -19.172   7.400   3.326  1.00 37.98    -0.365 N 
ATOM     45  H06 TRP A  63     -18.594   7.959   2.715  1.00 37.98     0.165 HD
ATOM     46  CD1 TRP A  63     -20.469   7.684   3.679  1.00 38.16     0.096 A 
ENDBRANCH  36  37
ENDBRANCH  35  36
END_RES TRP A  63
BEGIN_RES LEU A  66
REMARK  2 active torsions:
REMARK  status: ('A' for Active; 'I' for Inactive)
REMARK   16  A    between atoms: CA   and  CB  
REMARK   17  A    between atoms: CB   and  CG  
ROOT
ATOM     47  CA  LEU A  66     -20.004   6.489  11.120  1.00 10.90     0.177 C 
ENDROOT
BRANCH  47  48
ATOM     48  CB  LEU A  66     -19.626   5.453  10.069  1.00 13.57     0.038 C 
BRANCH  48  49
ATOM     49  CG  LEU A  66     -19.919   3.989  10.393  1.00  8.73    -0.020 C 
ATOM     50  CD1 LEU A  66     -21.230   3.562   9.784  1.00 14.23     0.009 C 
ATOM     51  CD2 LEU A  66     -18.796   3.145   9.847  1.00  1.92     0.009 C 
ENDBRANCH  48  49
ENDBRANCH  47  48
END_RES LEU A  66
BEGIN_RES PHE A  70
REMARK  2 active torsions:
REMARK  status: ('A' for Active; 'I' for Inactive)
REMARK   18  A    between atoms: CA   and  CB  
REMARK   19  A    between atoms: CB   and  CG  
ROOT
ATOM     52  CA  PHE A  70     -14.974   9.434  13.165  1.00  8.78     0.180 C 
ENDROOT
BRANCH  52  53
ATOM     53  CB  PHE A  70     -14.707   9.132  11.681  1.00  6.33     0.073 C 
BRANCH  53  54
ATOM     54  CG  PHE A  70     -13.979   7.835  11.456  1.00  3.42    -0.056 A 
ATOM     55  CD1 PHE A  70     -13.432   7.128  12.516  1.00 13.88     0.007 A 
ATOM     56  CE1 PHE A  70     -12.713   5.940  12.294  1.00 12.71     0.001 A 
ATOM     57  CZ  PHE A  70     -12.541   5.456  10.997  1.00  4.21     0.000 A 
ATOM     58  CE2 PHE A  70     -13.083   6.151   9.932  1.00  2.83     0.001 A 
ATOM     59  CD2 PHE A  70     -13.801   7.337  10.165  1.00  1.00     0.007 A 
ENDBRANCH  53  54
ENDBRANCH  52  53
END_RES PHE A  70
BEGIN_RES TYR A  73
REMARK  3 active torsions:
REMARK  status: ('A' for Active; 'I' for Inactive)
REMARK   20  A    between atoms: CA   and  CB  
REMARK   21  A    between atoms: CB   and  CG  
REMARK   22  A    between atoms: CZ   and  OH  
ROOT
ATOM     60  CA  TYR A  73     -13.212  10.166  17.260  1.00 12.17     0.180 C 
ENDROOT
BRANCH  60  61
ATOM     61  CB  TYR A  73     -13.301   8.846  16.517  1.00 12.84     0.073 C 
BRANCH  61  62
ATOM     62  CG  TYR A  73     -11.982   8.172  16.364  1.00 15.89    -0.056 A 
ATOM     63  CD1 TYR A  73     -11.303   7.681  17.457  1.00 16.00     0.010 A 
ATOM     64  CE1 TYR A  73     -10.054   7.078  17.320  1.00 13.55     0.037 A 
ATOM     65  CZ  TYR A  73      -9.488   6.972  16.065  1.00 18.13     0.065 A 
ATOM     66  CE2 TYR A  73     -10.145   7.453  14.957  1.00 15.89     0.037 A 
ATOM     67  CD2 TYR A  73     -11.390   8.051  15.112  1.00 21.86     0.010 A 
BRANCH  65  68
ATOM     68  OH  TYR A  73      -8.261   6.376  15.906  1.00 12.12    -0.361 OA
ATOM     69  H08 TYR A  73      -8.155   5.681  16.560  1.00 12.12     0.217 HD
ENDBRANCH  65  68
ENDBRANCH  61  62
ENDBRANCH  60  61
END_RES TYR A  73
BEGIN_RES PHE A  77
REMARK  2 active torsions:
REMARK  status: ('A' for Active; 'I' for Inactive)
REMARK   23  A    between atoms: CA   and  CB  
REMARK   24  A    between atoms: CB   and  CG  
ROOT
ATOM     70  CA  PHE A  77      -8.400  10.581  20.110  1.00 17.17     0.180 C 
ENDROOT
BRANCH  70  71
ATOM     71  CB  PHE A  77      -8.228   9.750  18.851  1.00 10.44     0.073 C 
BRANCH  71  72
ATOM     72  CG  PHE A  77      -6.885   9.101  18.736  1.00  6.07    -0.056 A 
ATOM     73  CD2 PHE A  77      -6.716   7.777  19.074  1.00  9.61     0.007 A 
ATOM     74  CE2 PHE A  77      -5.473   7.165  18.968  1.00  1.00     0.001 A 
ATOM     75  CZ  PHE A  77      -4.383   7.889  18.516  1.00  1.92     0.000 A 
ATOM     76  CE1 PHE A  77      -4.534   9.213  18.173  1.00  9.25     0.001 A 
ATOM     77  CD1 PHE A  77      -5.787   9.815  18.285  1.00  9.63     0.007 A 
ENDBRANCH  71  72
ENDBRANCH  70  71
END_RES PHE A  77
BEGIN_RES LEU A  96
REMARK  2 active torsions:
REMARK  status: ('A' for Active; 'I' for Inactive)
REMARK   25  A    between atoms: CA   and  CB  
REMARK   26  A    between atoms: CB   and  CG  
ROOT
ATOM     78  CA  LEU A  96       0.717   6.481  17.359  1.00 16.08     0.177 C 
ENDROOT
BRANCH  78  79
ATOM     79  CB  LEU A  96      -0.370   7.101  18.230  1.00 18.83     0.038 C 
BRANCH  79  80
ATOM     80  CG  LEU A  96      -0.600   6.387  19.562  1.00 19.03    -0.020 C 
ATOM     81  CD1 LEU A  96       0.553   5.444  19.816  1.00 28.17     0.009 C 
ATOM     82  CD2 LEU A  96      -0.658   7.388  20.693  1.00 22.01     0.009 C 
ENDBRANCH  79  80
ENDBRANCH  78  79
END_RES LEU A  96
BEGIN_RES VAL A  98
REMARK  1 active torsions:
REMARK  status: ('A' for Active; 'I' for Inactive)
REMARK   27  A    between atoms: CA   and  CB  
ROOT
ATOM     83  CA  VAL A  98      -3.928   2.082  14.897  1.00 19.83     0.180 C 
ENDROOT
BRANCH  83  84
ATOM     84  CB  VAL A  98      -5.203   2.807  15.281  1.00 17.87     0.009 C 
ATOM     85  CG2 VAL A  98      -4.889   4.221  15.695  1.00 29.90     0.012 C 
ATOM     86  CG1 VAL A  98      -5.893   2.059  16.402  1.00 14.79     0.012 C 
ENDBRANCH  83  84
END_RES VAL A  98
BEGIN_RES ASN A 112
REMARK  2 active torsions:
REMARK  status: ('A' for Active; 'I' for Inactive)
REMARK   28  A    between atoms: CA   and  CB  
REMARK   29  A    between atoms: CB   and  CG  
REMARK       I    between atoms: CG   and  ND2 
ROOT
ATOM     87  CA  ASN A 112     -11.790  -8.793  14.069  1.00 37.70     0.185 C 
ENDROOT
BRANCH  87  88
ATOM     88  CB  ASN A 112     -12.992  -7.945  14.465  1.00 26.24     0.137 C 
BRANCH  88  89
ATOM     89  CG  ASN A 112     -13.789  -8.541  15.603  1.00 21.77     0.217 C 
ATOM     90  ND2 ASN A 112     -14.922  -9.157  15.268  1.00  9.31    -0.370 N 
ATOM     91  H04 ASN A 112     -15.501  -9.575  15.984  1.00  9.31     0.159 HD
ATOM     92  H05 ASN A 112     -15.203  -9.207  14.299  1.00  9.31     0.159 HD
ATOM     93  OD1 ASN A 112     -13.396  -8.448  16.772  1.00 21.61    -0.274 OA
ENDBRANCH  88  89
ENDBRANCH  87  88
END_RES ASN A 112
BEGIN_RES PHE A 114
REMARK  2 active torsions:
REMARK  status: ('A' for Active; 'I' for Inactive)
REMARK   30  A    between atoms: CA   and  CB  
REMARK   31  A    between atoms: CB   and  CG  
ROOT
ATOM     94  CA  PHE A 114      -7.754  -3.619  17.012  1.00 26.06     0.180 C 
ENDROOT
BRANCH  94  95
ATOM     95  CB  PHE A 114      -8.890  -3.080  17.867  1.00 19.95     0.073 C 
BRANCH  95  96
ATOM     96  CG  PHE A 114      -8.900  -1.589  17.967  1.00 17.65    -0.056 A 
ATOM     97  CD1 PHE A 114      -9.796  -0.830  17.219  1.00 13.01     0.007 A 
ATOM     98  CE1 PHE A 114      -9.786   0.557  17.290  1.00  6.74     0.001 A 
ATOM     99  CZ  PHE A 114      -8.875   1.206  18.118  1.00  6.27     0.000 A 
ATOM    100  CE2 PHE A 114      -7.979   0.462  18.868  1.00 17.36     0.001 A 
ATOM    101  CD2 PHE A 114      -7.994  -0.935  18.791  1.00 18.39     0.007 A 
ENDBRANCH  95  96
ENDBRANCH  94  95
END_RES PHE A 114
BEGIN_RES VAL A 116
REMARK  1 active torsions:
REMARK  status: ('A' for Active; 'I' for Inactive)
REMARK   32  A    between atoms: CA   and  CB  
ROOT
ATOM    102  CA  VAL A 116      -2.467   0.283  18.565  1.00 13.48     0.180 C 
ENDROOT
BRANCH 102 103
ATOM    103  CB  VAL A 116      -3.101   1.238  19.599  1.00 20.86     0.009 C 
ATOM    104  CG1 VAL A 116      -3.193   2.646  19.006  1.00 25.01     0.012 C 
ATOM    105  CG2 VAL A 116      -4.454   0.731  20.042  1.00 25.34     0.012 C 
ENDBRANCH 102 103
END_RES VAL A 116
BEGIN_RES ILE A 123
REMARK  2 active torsions:
REMARK  status: ('A' for Active; 'I' for Inactive)
REMARK   33  A    between atoms: CA   and  CB  
REMARK   34  A    between atoms: CB   and  CG1 
ROOT
ATOM    106  CA  ILE A 123       1.557  -1.626  23.222  1.00 15.07     0.180 C 
ENDROOT
BRANCH 106 107
ATOM    107  CB  ILE A 123       1.697  -0.112  23.461  1.00 14.41     0.013 C 
ATOM    108  CG2 ILE A 123       3.121   0.217  23.875  1.00 18.35     0.012 C 
BRANCH 107 109
ATOM    109  CG1 ILE A 123       1.322   0.661  22.199  1.00 15.23     0.002 C 
ATOM    110  CD1 ILE A 123       0.484   1.887  22.466  1.00 14.67     0.005 C 
ENDBRANCH 107 109
ENDBRANCH 106 107
END_RES ILE A 123
BEGIN_RES LEU A 124
REMARK  2 active torsions:
REMARK  status: ('A' for Active; 'I' for Inactive)
REMARK   35  A    between atoms: CA   and  CB  
REMARK   36  A    between atoms: CB   and  CG  
ROOT
ATOM    111  CA  LEU A 124      -2.057  -2.686  23.524  1.00 11.86     0.177 C 
ENDROOT
BRANCH 111 112
ATOM    112  CB  LEU A 124      -2.698  -1.652  24.429  1.00 14.60     0.038 C 
BRANCH 112 113
ATOM    113  CG  LEU A 124      -2.766  -0.281  23.772  1.00 16.19    -0.020 C 
ATOM    114  CD1 LEU A 124      -4.227   0.210  23.788  1.00 22.07     0.009 C 
ATOM    115  CD2 LEU A 124      -1.845   0.669  24.495  1.00  9.12     0.009 C 
ENDBRANCH 112 113
ENDBRANCH 111 112
END_RES LEU A 124
BEGIN_RES PHE A 126
REMARK  2 active torsions:
REMARK  status: ('A' for Active; 'I' for Inactive)
REMARK   37  A    between atoms: CA   and  CB  
REMARK   38  A    between atoms: CB   and  CG  
ROOT
ATOM    116  CA  PHE A 126      -8.784  -4.792  22.233  1.00 23.15     0.180 C 
ENDROOT
BRANCH 116 117
ATOM    117  CB  PHE A 126      -9.823  -4.011  21.461  1.00 20.65     0.073 C 
BRANCH 117 118
ATOM    118  CG  PHE A 126     -10.940  -3.527  22.300  1.00 23.65    -0.056 A 
ATOM    119  CD2 PHE A 126     -10.738  -2.531  23.238  1.00 36.63     0.007 A 
ATOM    120  CE2 PHE A 126     -11.799  -2.072  24.032  1.00 36.27     0.001 A 
ATOM    121  CZ  PHE A 126     -13.064  -2.620  23.880  1.00 18.06     0.000 A 
ATOM    122  CE1 PHE A 126     -13.269  -3.613  22.943  1.00  5.50     0.001 A 
ATOM    123  CD1 PHE A 126     -12.209  -4.061  22.155  1.00 15.29     0.007 A 
ENDBRANCH 117 118
ENDBRANCH 116 117
END_RES PHE A 126
BEGIN_RES TRP A 131
REMARK  2 active torsions:
REMARK  status: ('A' for Active; 'I' for Inactive)
REMARK   39  A    between atoms: CA   and  CB  
REMARK   40  A    between atoms: CB   and  CG  
ROOT
ATOM    124  CA  TRP A 131      -8.096  -3.335  26.542  1.00 14.52     0.181 C 
ENDROOT
BRANCH 124 125
ATOM    125  CB  TRP A 131      -7.651  -1.877  26.607  1.00 13.06     0.075 C 
BRANCH 125 126
ATOM    126  CG  TRP A 131      -8.018  -1.061  25.388  1.00 16.97    -0.028 A 
ATOM    127  CD2 TRP A 131      -9.075  -0.102  25.290  1.00 11.34    -0.002 A 
ATOM    128  CE2 TRP A 131      -9.053   0.421  23.983  1.00  5.87     0.042 A 
ATOM    129  CE3 TRP A 131     -10.042   0.363  26.188  1.00  3.80     0.014 A 
ATOM    130  CZ2 TRP A 131      -9.959   1.390  23.550  1.00  1.35     0.030 A 
ATOM    131  NE1 TRP A 131      -8.030  -0.192  23.312  1.00 13.90    -0.365 N 
ATOM    132  CH2 TRP A 131     -10.896   1.830  24.452  1.00  1.00     0.002 A 
ATOM    133  CZ3 TRP A 131     -10.944   1.322  25.764  1.00  1.00     0.001 A 
ATOM    134  CD1 TRP A 131      -7.412  -1.080  24.161  1.00 17.22     0.096 A 
ATOM    135  H07 TRP A 131      -7.770  -0.020  22.351  1.00 13.90     0.165 HD
ENDBRANCH 125 126
ENDBRANCH 124 125
END_RES TRP A 131
BEGIN_RES LEU A 148
REMARK  2 active torsions:
REMARK  status: ('A' for Active; 'I' for Inactive)
REMARK   41  A    between atoms: CA   and  CB  
REMARK   42  A    between atoms: CB   and  CG  
ROOT
ATOM    136  CA  LEU A 148      -9.018   3.259  29.295  1.00 16.99     0.177 C 
ENDROOT
BRANCH 136 137
ATOM    137  CB  LEU A 148      -8.166   2.574  28.236  1.00  6.39     0.038 C 
BRANCH 137 138
ATOM    138  CG  LEU A 148      -7.817   3.275  26.939  1.00  1.00    -0.020 C 
ATOM    139  CD2 LEU A 148      -6.859   2.442  26.139  1.00  1.00     0.009 C 
ATOM    140  CD1 LEU A 148      -7.201   4.621  27.277  1.00  2.71     0.009 C 
ENDBRANCH 137 138
ENDBRANCH 136 137
END_RES LEU A 148
BEGIN_RES THR A 154
REMARK  2 active torsions:
REMARK  status: ('A' for Active; 'I' for Inactive)
REMARK   43  A    between atoms: CA   and  CB  
REMARK   44  A    between atoms: CB   and  OG1 
ROOT
ATOM    141  CA  THR A 154     -15.990   3.959  24.426  1.00 20.45     0.205 C 
ENDROOT
BRANCH 141 142
ATOM    142  CB  THR A 154     -14.777   4.829  24.694  1.00 16.79     0.146 C 
ATOM    143  CG2 THR A 154     -13.513   3.991  24.657  1.00 20.24     0.042 C 
BRANCH 142 144
ATOM    144  OG1 THR A 154     -14.694   5.836  23.678  1.00 18.84    -0.393 OA
ATOM    145  H06 THR A 154     -15.577   6.058  23.374  1.00 18.84     0.210 HD
ENDBRANCH 142 144
ENDBRANCH 141 142
END_RES THR A 154
BEGIN_RES VAL A 158
REMARK  1 active torsions:
REMARK  status: ('A' for Active; 'I' for Inactive)
REMARK   45  A    between atoms: CA   and  CB  
ROOT
ATOM    146  CA  VAL A 158     -15.487  -0.189  19.892  1.00 15.49     0.180 C 
ENDROOT
BRANCH 146 147
ATOM    147  CB  VAL A 158     -14.291  -0.273  20.822  1.00  6.52     0.009 C 
ATOM    148  CG1 VAL A 158     -13.202  -1.134  20.224  1.00  1.00     0.012 C 
ATOM    149  CG2 VAL A 158     -13.787   1.113  21.082  1.00  5.99     0.012 C 
ENDBRANCH 146 147
END_RES VAL A 158
BEGIN_RES LEU A 161
REMARK  2 active torsions:
REMARK  status: ('A' for Active; 'I' for Inactive)
REMARK   46  A    between atoms: CA   and  CB  
REMARK   47  A    between atoms: CB   and  CG  
ROOT
ATOM    150  CA  LEU A 161     -18.031  -1.858  15.935  1.00 13.31     0.177 C 
ENDROOT
BRANCH 150 151
ATOM    151  CB  LEU A 161     -17.046  -0.706  16.001  1.00 14.13     0.038 C 
BRANCH 151 152
ATOM    152  CG  LEU A 161     -17.458   0.576  15.288  1.00 19.39    -0.020 C 
ATOM    153  CD2 LEU A 161     -18.674   1.176  15.953  1.00 27.75     0.009 C 
ATOM    154  CD1 LEU A 161     -17.763   0.257  13.850  1.00 18.59     0.009 C 
ENDBRANCH 151 152
ENDBRANCH 150 151
END_RES LEU A 161
BEGIN_RES GLN A 168
REMARK  3 active torsions:
REMARK  status: ('A' for Active; 'I' for Inactive)
REMARK   48  A    between atoms: CA   and  CB  
REMARK   49  A    between atoms: CB   and  CG  
REMARK   50  A    between atoms: CG   and  CD  
REMARK       I    between atoms: CD   and  NE2 
ROOT
ATOM    155  CA  GLN A 168     -22.035  -6.020   8.155  1.00 30.94     0.177 C 
ENDROOT
BRANCH 155 156
ATOM    156  CB  GLN A 168     -23.054  -5.218   8.946  1.00 41.76     0.044 C 
BRANCH 156 157
ATOM    157  CG  GLN A 168     -23.728  -5.984  10.052  1.00 61.20     0.105 C 
BRANCH 157 158
ATOM    158  CD  GLN A 168     -24.466  -5.066  11.007  1.00 75.49     0.215 C 
ATOM    159  NE2 GLN A 168     -25.563  -5.567  11.578  1.00 85.00    -0.370 N 
ATOM    160  H06 GLN A 168     -26.099  -5.004  12.222  1.00 85.00     0.159 HD
ATOM    161  H07 GLN A 168     -25.856  -6.511  11.367  1.00 85.00     0.159 HD
ATOM    162  OE1 GLN A 168     -24.063  -3.915  11.227  1.00 73.64    -0.274 OA
ENDBRANCH 157 158
ENDBRANCH 156 157
ENDBRANCH 155 156
END_RES GLN A 168
ENDMDL
MODEL 5
REMARK VINA RESULT:      -5.5      2.819      8.482
REMARK  Name = human_CD1d_Tyloxapol_pred.rank_0
REMARK  175 active torsions:
REMARK  status: ('A' for Active; 'I' for Inactive)
REMARK    1  A    between atoms: C_1  and  C_3
REMARK    2  A    between atoms: C_3  and  O_4
REMARK    3  A    between atoms: O_4  and  C_5
REMARK    4  A    between atoms: C_5  and  C_7
REMARK    5  A    between atoms: O_6  and  C_7
REMARK    6  A    between atoms: O_6  and  C_9
REMARK    7  A    between atoms: O_8  and  C_11
REMARK    8  A    between atoms: O_8  and  C_13
REMARK    9  A    between atoms: C_9  and  C_11
REMARK   10  A    between atoms: O_10  and  C_15
REMARK   11  A    between atoms: O_10  and  C_17
REMARK   12  A    between atoms: O_12  and  C_19
REMARK   13  A    between atoms: O_12  and  C_21
REMARK   14  A    between atoms: C_13  and  C_15
REMARK   15  A    between atoms: O_14  and  C_23
REMARK   16  A    between atoms: O_14  and  C_25
REMARK   17  A    between atoms: O_16  and  C_27
REMARK   18  A    between atoms: O_16  and  C_29
REMARK   19  A    between atoms: C_17  and  C_19
REMARK   20  A    between atoms: O_18  and  C_37
REMARK   21  A    between atoms: O_18  and  C_39
REMARK   22  A    between atoms: O_20  and  C_41
REMARK   23  A    between atoms: O_20  and  C_43
REMARK   24  A    between atoms: C_21  and  C_23
REMARK   25  A    between atoms: O_22  and  C_49
REMARK   26  A    between atoms: O_22  and  C_51
REMARK   27  A    between atoms: O_24  and  C_53
REMARK   28  A    between atoms: O_24  and  C_55
REMARK   29  A    between atoms: C_25  and  C_27
REMARK   30  A    between atoms: O_26  and  C_57
REMARK   31  A    between atoms: O_26  and  C_59
REMARK   32  A    between atoms: O_28  and  C_61
REMARK   33  A    between atoms: O_28  and  C_63
REMARK   34  A    between atoms: C_29  and  C_31
REMARK   35  A    between atoms: O_30  and  C_65
REMARK   36  A    between atoms: O_30  and  C_67
REMARK   37  A    between atoms: C_31  and  C_33
REMARK   38  A    between atoms: O_32  and  C_69
REMARK   39  A    between atoms: O_32  and  C_71
REMARK   40  A    between atoms: C_33  and  C_35
REMARK   41  A    between atoms: O_34  and  C_73
REMARK   42  A    between atoms: O_34  and  C_75
REMARK   43  A    between atoms: C_35  and  C_37
REMARK   44  A    between atoms: O_36  and  C_77
REMARK   45  A    between atoms: O_36  and  C_79
REMARK   46  A    between atoms: O_38  and  C_81
REMARK   47  A    between atoms: O_38  and  C_83
REMARK   48  A    between atoms: C_39  and  C_41
REMARK   49  A    between atoms: O_40  and  C_85
REMARK   50  A    between atoms: O_40  and  C_87
REMARK   51  A    between atoms: C_43  and  C_45
REMARK   52  A    between atoms: C_43  and  C_163
REMARK   53  A    between atoms: O_44  and  C_116
REMARK   54  A    between atoms: O_44  and  C_117
REMARK   55  A    between atoms: C_45  and  C_47
REMARK   56  A    between atoms: C_45  and  C_150
REMARK   57  A    between atoms: O_46  and  C_118
REMARK   58  A    between atoms: O_46  and  C_119
REMARK   59  A    between atoms: O_48  and  C_120
REMARK   60  A    between atoms: O_48  and  C_121
REMARK   61  A    between atoms: O_50  and  C_122
REMARK   62  A    between atoms: O_50  and  C_123
REMARK   63  A    between atoms: C_51  and  C_53
REMARK   64  A    between atoms: O_52  and  C_124
REMARK   65  A    between atoms: O_52  and  C_125
REMARK   66  A    between atoms: O_54  and  C_126
REMARK   67  A    between atoms: O_54  and  C_127
REMARK   68  A    between atoms: C_55  and  C_57
REMARK   69  A    between atoms: O_56  and  C_128
REMARK   70  A    between atoms: O_56  and  C_129
REMARK   71  A    between atoms: O_58  and  C_130
REMARK   72  A    between atoms: O_58  and  C_131
REMARK   73  A    between atoms: C_59  and  C_61
REMARK   74  A    between atoms: O_60  and  C_132
REMARK   75  A    between atoms: O_60  and  C_133
REMARK   76  A    between atoms: O_62  and  C_134
REMARK   77  A    between atoms: O_62  and  C_135
REMARK   78  A    between atoms: C_63  and  C_65
REMARK   79  A    between atoms: O_66  and  C_180
REMARK   80  A    between atoms: O_66  and  C_181
REMARK   81  A    between atoms: C_67  and  C_69
REMARK   82  A    between atoms: O_68  and  C_182
REMARK   83  A    between atoms: O_68  and  C_183
REMARK   84  A    between atoms: O_70  and  C_184
REMARK   85  A    between atoms: O_70  and  C_185
REMARK   86  A    between atoms: C_71  and  C_73
REMARK   87  A    between atoms: O_72  and  C_186
REMARK   88  A    between atoms: O_72  and  C_187
REMARK   89  A    between atoms: O_74  and  C_188
REMARK   90  A    between atoms: O_74  and  C_189
REMARK   91  A    between atoms: C_75  and  C_77
REMARK   92  A    between atoms: O_76  and  C_190
REMARK   93  A    between atoms: O_76  and  C_191
REMARK   94  A    between atoms: O_78  and  C_192
REMARK   95  A    between atoms: O_78  and  C_193
REMARK   96  A    between atoms: C_79  and  C_81
REMARK   97  A    between atoms: O_80  and  C_194
REMARK   98  A    between atoms: O_80  and  C_195
REMARK   99  A    between atoms: O_82  and  C_196
REMARK  100  A    between atoms: O_82  and  C_197
REMARK  101  A    between atoms: C_83  and  C_85
REMARK  102  A    between atoms: O_84  and  C_198
REMARK  103  A    between atoms: O_84  and  C_199
REMARK  104  A    between atoms: C_87  and  C_89
REMARK  105  A    between atoms: O_88  and  C_215
REMARK  106  A    between atoms: O_88  and  C_216
REMARK  107  A    between atoms: O_90  and  C_217
REMARK  108  A    between atoms: O_90  and  C_218
REMARK  109  A    between atoms: O_92  and  C_219
REMARK  110  A    between atoms: O_92  and  C_220
REMARK  111  A    between atoms: O_94  and  C_221
REMARK  112  A    between atoms: O_94  and  C_222
REMARK  113  A    between atoms: O_96  and  C_223
REMARK  114  A    between atoms: O_96  and  C_224
REMARK  115  A    between atoms: C_97  and  C_99
REMARK  116  A    between atoms: O_98  and  C_225
REMARK  117  A    between atoms: O_98  and  C_226
REMARK  118  A    between atoms: C_99  and  C_105
REMARK  119  A    between atoms: O_100  and  C_227
REMARK  120  A    between atoms: O_100  and  C_228
REMARK  121  A    between atoms: O_102  and  C_229
REMARK  122  A    between atoms: O_102  and  C_230
REMARK  123  A    between atoms: O_104  and  C_231
REMARK  124  A    between atoms: O_104  and  C_232
REMARK  125  A    between atoms: C_105  and  C_107
REMARK  126  A    between atoms: O_106  and  C_233
REMARK  127  A    between atoms: O_106  and  C_234
REMARK  128  A    between atoms: C_117  and  C_118
REMARK  129  A    between atoms: C_119  and  C_120
REMARK  130  A    between atoms: C_121  and  C_122
REMARK  131  A    between atoms: C_123  and  C_124
REMARK  132  A    between atoms: C_125  and  C_126
REMARK  133  A    between atoms: C_127  and  C_128
REMARK  134  A    between atoms: C_129  and  C_130
REMARK  135  A    between atoms: C_131  and  C_132
REMARK  136  A    between atoms: C_133  and  C_134
REMARK  137  A    between atoms: C_135  and  C_136
REMARK  138  A    between atoms: C_138  and  C_139
REMARK  139  A    between atoms: C_139  and  C_142
REMARK  140  A    between atoms: C_142  and  C_145
REMARK  141  A    between atoms: C_150  and  C_151
REMARK  142  A    between atoms: C_151  and  C_152
REMARK  143  A    between atoms: C_152  and  C_155
REMARK  144  A    between atoms: C_155  and  C_158
REMARK  145  A    between atoms: C_163  and  C_164
REMARK  146  A    between atoms: C_166  and  C_167
REMARK  147  A    between atoms: C_167  and  C_168
REMARK  148  A    between atoms: C_168  and  C_171
REMARK  149  A    between atoms: C_178  and  C_179
REMARK  150  A    between atoms: C_179  and  C_180
REMARK  151  A    between atoms: C_179  and  C_214
REMARK  152  A    between atoms: C_181  and  C_182
REMARK  153  A    between atoms: C_183  and  C_184
REMARK  154  A    between atoms: C_185  and  C_186
REMARK  155  A    between atoms: C_187  and  C_188
REMARK  156  A    between atoms: C_189  and  C_190
REMARK  157  A    between atoms: C_191  and  C_192
REMARK  158  A    between atoms: C_193  and  C_194
REMARK  159  A    between atoms: C_195  and  C_196
REMARK  160  A    between atoms: C_197  and  C_198
REMARK  161  A    between atoms: C_199  and  C_200
REMARK  162  A    between atoms: C_203  and  C_204
REMARK  163  A    between atoms: C_203  and  C_214
REMARK  164  A    between atoms: C_204  and  C_207
REMARK  165  A    between atoms: C_207  and  C_210
REMARK  166  A    between atoms: C_216  and  C_217
REMARK  167  A    between atoms: C_218  and  C_219
REMARK  168  A    between atoms: C_220  and  C_221
REMARK  169  A    between atoms: C_222  and  C_223
REMARK  170  A    between atoms: C_224  and  C_225
REMARK  171  A    between atoms: C_226  and  C_227
REMARK  172  A    between atoms: C_228  and  C_229
REMARK  173  A    between atoms: C_230  and  C_231
REMARK  174  A    between atoms: C_232  and  C_233
REMARK  175  A    between atoms: C_234  and  C_235
REMARK                            x       y       z     vdW  Elec       q    Type
REMARK                         _______ _______ _______ _____ _____    ______ ____
ROOT
ATOM      1  C   UNL     1     -12.610  11.478  27.807  0.00  0.00    +0.000 C 
ENDROOT
BRANCH   1   2
ATOM      2  C   UNL     1     -12.937  10.210  26.354  0.00  0.00    +0.000 C 
BRANCH   2   3
ATOM      3  C   UNL     1     -12.663   8.688  26.583  0.00  0.00    +0.000 C 
ATOM      4  C   UNL     1     -11.778   8.418  27.956  0.00  0.00    +0.000 C 
ATOM      5  C   UNL     1     -10.290   8.291  27.659  0.00  0.00    +0.000 C 
ATOM      6  C   UNL     1     -10.077   6.830  26.726  0.00  0.00    +0.000 C 
ATOM      7  C   UNL     1     -10.365   6.826  25.280  0.00  0.00    +0.000 C 
ATOM      8  C   UNL     1     -11.919   7.617  25.008  0.00  0.00    +0.000 C 
BRANCH   5   9
ATOM      9  C   UNL     1      -9.398   8.314  29.019  0.00  0.00    +0.000 C 
ATOM     10  C   UNL     1     -10.143   8.245  29.979  0.00  0.00    +0.000 C 
ATOM     11  C   UNL     1      -8.286   7.192  28.830  0.00  0.00    +0.000 C 
BRANCH   9  12
ATOM     12  C   UNL     1      -8.484   9.673  29.159  0.00  0.00    +0.000 C 
ATOM     13  C   UNL     1      -9.195  10.889  28.514  0.00  0.00    +0.000 C 
ATOM     14  C   UNL     1      -7.164   9.627  28.078  0.00  0.00    +0.000 C 
BRANCH  12  15
ATOM     15  C   UNL     1      -7.761   9.984  30.431  0.00  0.00    +0.000 C 
ATOM     16  C   UNL     1      -7.726  11.499  30.293  0.00  0.00    +0.000 C 
ATOM     17  C   UNL     1      -6.354   9.550  30.533  0.00  0.00    +0.000 C 
ATOM     18  C   UNL     1      -8.471   9.518  31.631  0.00  0.00    +0.000 C 
ENDBRANCH  12  15
ENDBRANCH   9  12
ENDBRANCH   5   9
BRANCH   7  19
ATOM     19  C   UNL     1      -9.786   5.605  24.446  0.00  0.00    +0.000 C 
BRANCH  19  20
ATOM     20  C   UNL     1     -10.187   5.638  22.927  0.00  0.00    +0.000 C 
ATOM     21  C   UNL     1      -9.708   6.958  22.201  0.00  0.00    +0.000 C 
BRANCH  20  22
ATOM     22  O   UNL     1      -9.452   4.575  22.217  0.00  0.00    +0.000 OA
BRANCH  22  23
ATOM     23  C   UNL     1      -9.708   4.483  20.842  0.00  0.00    +0.000 C 
BRANCH  23  24
ATOM     24  C   UNL     1     -11.016   3.745  20.595  0.00  0.00    +0.000 C 
BRANCH  24  25
ATOM     25  O   UNL     1     -10.995   3.204  19.315  0.00  0.00    +0.000 OA
BRANCH  25  26
ATOM     26  C   UNL     1     -10.043   3.825  18.465  0.00  0.00    +0.000 C 
BRANCH  26  27
ATOM     27  C   UNL     1     -10.209   3.379  17.077  0.00  0.00    +0.000 C 
BRANCH  27  28
ATOM     28  O   UNL     1      -9.007   3.500  16.411  0.00  0.00    +0.000 OA
BRANCH  28  29
ATOM     29  C   UNL     1      -9.043   3.107  15.054  0.00  0.00    +0.000 C 
BRANCH  29  30
ATOM     30  C   UNL     1     -10.187   3.815  14.367  0.00  0.00    +0.000 C 
BRANCH  30  31
ATOM     31  O   UNL     1     -10.328   3.265  13.093  0.00  0.00    +0.000 OA
BRANCH  31  32
ATOM     32  C   UNL     1     -11.077   2.037  13.137  0.00  0.00    +0.000 C 
BRANCH  32  33
ATOM     33  C   UNL     1     -12.569   2.400  13.211  0.00  0.00    +0.000 C 
BRANCH  33  34
ATOM     34  O   UNL     1     -13.154   2.096  11.986  0.00  0.00    +0.000 OA
BRANCH  34  35
ATOM     35  C   UNL     1     -14.593   2.176  11.985  0.00  0.00    +0.000 C 
BRANCH  35  36
ATOM     36  C   UNL     1     -15.112   3.010  10.853  0.00  0.00    +0.000 C 
BRANCH  36  37
ATOM     37  O   UNL     1     -15.768   4.167  11.450  0.00  0.00    +0.000 OA
BRANCH  37  38
ATOM     38  C   UNL     1     -16.310   3.835  12.704  0.00  0.00    +0.000 C 
BRANCH  38  39
ATOM     39  C   UNL     1     -17.629   4.444  12.963  0.00  0.00    +0.000 C 
BRANCH  39  40
ATOM     40  O   UNL     1     -18.373   3.539  13.907  0.00  0.00    +0.000 OA
BRANCH  40  41
ATOM     41  C   UNL     1     -19.597   3.098  13.367  0.00  0.00    +0.000 C 
BRANCH  41  42
ATOM     42  C   UNL     1     -20.437   2.424  14.396  0.00  0.00    +0.000 C 
BRANCH  42  43
ATOM     43  O   UNL     1     -21.455   1.712  13.813  0.00  0.00    +0.000 OA
BRANCH  43  44
ATOM     44  C   UNL     1     -22.591   2.440  13.445  0.00  0.00    +0.000 C 
BRANCH  44  45
ATOM     45  C   UNL     1     -23.384   1.749  12.394  0.00  0.00    +0.000 C 
BRANCH  45  46
ATOM     46  O   UNL     1     -23.811   0.494  12.931  0.00  0.00    +0.000 OA
BRANCH  46  47
ATOM     47  C   UNL     1     -24.093  -0.401  11.869  0.00  0.00    +0.000 C 
BRANCH  47  48
ATOM     48  C   UNL     1     -25.256   0.228  10.993  0.00  0.00    +0.000 C 
BRANCH  48  49
ATOM     49  O   UNL     1     -25.378  -0.485   9.812  0.00  0.00    +0.000 OA
BRANCH  49  50
ATOM     50  C   UNL     1     -25.559  -1.854   9.945  0.00  0.00    +0.000 C 
BRANCH  50  52
ATOM     51  O   UNL     1     -26.875  -3.342  11.265  0.00  0.00    +0.000 OA
ATOM     52  C   UNL     1     -26.978  -2.139  10.478  0.00  0.00    +0.000 C 
ENDBRANCH  50  52
ENDBRANCH  49  50
ENDBRANCH  48  49
ENDBRANCH  47  48
ENDBRANCH  46  47
ENDBRANCH  45  46
ENDBRANCH  44  45
ENDBRANCH  43  44
ENDBRANCH  42  43
ENDBRANCH  41  42
ENDBRANCH  40  41
ENDBRANCH  39  40
ENDBRANCH  38  39
ENDBRANCH  37  38
ENDBRANCH  36  37
ENDBRANCH  35  36
ENDBRANCH  34  35
ENDBRANCH  33  34
ENDBRANCH  32  33
ENDBRANCH  31  32
ENDBRANCH  30  31
ENDBRANCH  29  30
ENDBRANCH  28  29
ENDBRANCH  27  28
ENDBRANCH  26  27
ENDBRANCH  25  26
ENDBRANCH  24  25
ENDBRANCH  23  24
ENDBRANCH  22  23
ENDBRANCH  20  22
ENDBRANCH  19  20
BRANCH  19  53
ATOM     53  C   UNL     1      -8.182   5.405  24.441  0.00  0.00    +0.000 C 
BRANCH  53  55
ATOM     54  C   UNL     1      -7.187   7.289  25.485  0.00  0.00    +0.000 C 
ATOM     55  C   UNL     1      -7.170   6.282  24.393  0.00  0.00    +0.000 C 
BRANCH  55  56
ATOM     56  C   UNL     1      -6.068   6.302  23.335  0.00  0.00    +0.000 C 
ATOM     57  C   UNL     1      -6.762   6.878  22.148  0.00  0.00    +0.000 C 
ATOM     58  C   UNL     1      -5.002   7.273  23.753  0.00  0.00    +0.000 C 
BRANCH  56  59
ATOM     59  C   UNL     1      -5.490   4.877  23.081  0.00  0.00    +0.000 C 
ATOM     60  C   UNL     1      -5.510   4.506  21.650  0.00  0.00    +0.000 C 
ATOM     61  C   UNL     1      -6.358   3.878  23.882  0.00  0.00    +0.000 C 
BRANCH  59  62
ATOM     62  C   UNL     1      -3.995   4.677  23.605  0.00  0.00    +0.000 C 
ATOM     63  C   UNL     1      -3.203   5.926  23.443  0.00  0.00    +0.000 C 
ATOM     64  C   UNL     1      -3.297   3.638  22.761  0.00  0.00    +0.000 C 
ATOM     65  C   UNL     1      -3.905   4.184  24.967  0.00  0.00    +0.000 C 
ENDBRANCH  59  62
ENDBRANCH  56  59
ENDBRANCH  55  56
ENDBRANCH  53  55
ENDBRANCH  19  53
ENDBRANCH   7  19
BRANCH   8  66
ATOM     66  O   UNL     1     -12.669   7.589  23.868  0.00  0.00    +0.000 OA
BRANCH  66  67
ATOM     67  C   UNL     1     -12.500   8.681  22.994  0.00  0.00    +0.000 C 
BRANCH  67  68
ATOM     68  C   UNL     1     -12.781   8.434  21.496  0.00  0.00    +0.000 C 
BRANCH  68  69
ATOM     69  O   UNL     1     -13.137   7.091  21.318  0.00  0.00    +0.000 OA
BRANCH  69  70
ATOM     70  C   UNL     1     -14.525   6.927  20.880  0.00  0.00    +0.000 C 
BRANCH  70  71
ATOM     71  C   UNL     1     -14.694   7.366  19.436  0.00  0.00    +0.000 C 
BRANCH  71  72
ATOM     72  O   UNL     1     -15.225   6.178  18.613  0.00  0.00    +0.000 OA
BRANCH  72  73
ATOM     73  C   UNL     1     -15.408   5.032  19.434  0.00  0.00    +0.000 C 
BRANCH  73  74
ATOM     74  C   UNL     1     -14.664   3.847  18.805  0.00  0.00    +0.000 C 
BRANCH  74  75
ATOM     75  O   UNL     1     -13.851   4.266  17.755  0.00  0.00    +0.000 OA
BRANCH  75  76
ATOM     76  C   UNL     1     -13.560   3.225  16.813  0.00  0.00    +0.000 C 
BRANCH  76  77
ATOM     77  C   UNL     1     -13.519   1.871  17.469  0.00  0.00    +0.000 C 
BRANCH  77  78
ATOM     78  O   UNL     1     -12.776   1.055  16.576  0.00  0.00    +0.000 OA
BRANCH  78  79
ATOM     79  C   UNL     1     -13.445  -0.207  16.243  0.00  0.00    +0.000 C 
BRANCH  79  80
ATOM     80  C   UNL     1     -12.865  -0.669  14.961  0.00  0.00    +0.000 C 
BRANCH  80  81
ATOM     81  O   UNL     1     -13.878  -0.923  13.951  0.00  0.00    +0.000 OA
BRANCH  81  82
ATOM     82  C   UNL     1     -13.505  -1.876  13.009  0.00  0.00    +0.000 C 
BRANCH  82  83
ATOM     83  C   UNL     1     -13.767  -1.355  11.582  0.00  0.00    +0.000 C 
BRANCH  83  84
ATOM     84  O   UNL     1     -15.150  -1.257  11.341  0.00  0.00    +0.000 OA
BRANCH  84  85
ATOM     85  C   UNL     1     -15.545  -0.872  10.121  0.00  0.00    +0.000 C 
BRANCH  85  86
ATOM     86  C   UNL     1     -14.328  -0.650   9.199  0.00  0.00    +0.000 C 
BRANCH  86  87
ATOM     87  O   UNL     1     -14.579   0.265   8.164  0.00  0.00    +0.000 OA
BRANCH  87  88
ATOM     88  C   UNL     1     -13.443   0.711   7.510  0.00  0.00    +0.000 C 
BRANCH  88  89
ATOM     89  C   UNL     1     -13.700   2.025   6.791  0.00  0.00    +0.000 C 
BRANCH  89  90
ATOM     90  O   UNL     1     -12.893   3.046   7.368  0.00  0.00    +0.000 OA
BRANCH  90  91
ATOM     91  C   UNL     1     -13.003   4.238   6.561  0.00  0.00    +0.000 C 
BRANCH  91  92
ATOM     92  C   UNL     1     -14.465   4.448   6.256  0.00  0.00    +0.000 C 
BRANCH  92  93
ATOM     93  O   UNL     1     -14.876   5.678   6.846  0.00  0.00    +0.000 OA
BRANCH  93  94
ATOM     94  C   UNL     1     -16.017   5.567   7.607  0.00  0.00    +0.000 C 
BRANCH  94  96
ATOM     95  O   UNL     1     -17.953   6.960   7.313  0.00  0.00    +0.000 OA
ATOM     96  C   UNL     1     -16.651   6.943   7.836  0.00  0.00    +0.000 C 
ENDBRANCH  94  96
ENDBRANCH  93  94
ENDBRANCH  92  93
ENDBRANCH  91  92
ENDBRANCH  90  91
ENDBRANCH  89  90
ENDBRANCH  88  89
ENDBRANCH  87  88
ENDBRANCH  86  87
ENDBRANCH  85  86
ENDBRANCH  84  85
ENDBRANCH  83  84
ENDBRANCH  82  83
ENDBRANCH  81  82
ENDBRANCH  80  81
ENDBRANCH  79  80
ENDBRANCH  78  79
ENDBRANCH  77  78
ENDBRANCH  76  77
ENDBRANCH  75  76
ENDBRANCH  74  75
ENDBRANCH  73  74
ENDBRANCH  72  73
ENDBRANCH  71  72
ENDBRANCH  70  71
ENDBRANCH  69  70
ENDBRANCH  68  69
ENDBRANCH  67  68
ENDBRANCH  66  67
ENDBRANCH   8  66
ENDBRANCH   2   3
ENDBRANCH   1   2
BRANCH   1  97
ATOM     97  C   UNL     1     -13.586  11.890  28.894  0.00  0.00    +0.000 C 
BRANCH  97  98
ATOM     98  C   UNL     1     -14.569  10.680  29.326  0.00  0.00    +0.000 C 
ATOM     99  C   UNL     1     -16.008  10.855  28.754  0.00  0.00    +0.000 C 
ATOM    100  C   UNL     1     -17.065   9.722  29.120  0.00  0.00    +0.000 C 
ATOM    101  C   UNL     1     -18.382   9.079  29.127  0.00  0.00    +0.000 C 
ATOM    102  C   UNL     1     -19.013   8.336  30.281  0.00  0.00    +0.000 C 
ATOM    103  C   UNL     1     -20.348   7.785  30.191  0.00  0.00    +0.000 C 
ATOM    104  C   UNL     1     -21.065   8.044  28.972  0.00  0.00    +0.000 C 
ATOM    105  C   UNL     1     -20.506   8.647  27.851  0.00  0.00    +0.000 C 
ATOM    106  C   UNL     1     -19.224   9.074  28.027  0.00  0.00    +0.000 C 
ATOM    107  C   UNL     1     -16.795   9.330  29.813  0.00  0.00    +0.000 C 
ATOM    108  C   UNL     1     -15.649   8.890  30.378  0.00  0.00    +0.000 C 
ATOM    109  C   UNL     1     -14.291   9.388  29.862  0.00  0.00    +0.000 C 
BRANCH 103 110
ATOM    110  C   UNL     1     -20.892   6.952  31.349  0.00  0.00    +0.000 C 
ATOM    111  C   UNL     1     -20.111   7.478  32.587  0.00  0.00    +0.000 C 
ATOM    112  C   UNL     1     -22.282   7.315  31.596  0.00  0.00    +0.000 C 
BRANCH 110 113
ATOM    113  C   UNL     1     -20.786   5.410  31.348  0.00  0.00    +0.000 C 
ATOM    114  C   UNL     1     -19.481   5.077  30.697  0.00  0.00    +0.000 C 
ATOM    115  C   UNL     1     -20.814   4.908  32.795  0.00  0.00    +0.000 C 
BRANCH 113 116
ATOM    116  C   UNL     1     -21.983   4.652  30.617  0.00  0.00    +0.000 C 
ATOM    117  C   UNL     1     -23.313   5.315  30.920  0.00  0.00    +0.000 C 
ATOM    118  C   UNL     1     -22.136   3.275  31.155  0.00  0.00    +0.000 C 
ATOM    119  C   UNL     1     -21.742   4.565  29.136  0.00  0.00    +0.000 C 
ENDBRANCH 113 116
ENDBRANCH 110 113
ENDBRANCH 103 110
BRANCH 108 120
ATOM    120  C   UNL     1     -15.728   8.385  31.866  0.00  0.00    +0.000 C 
ATOM    121  C   UNL     1     -16.564   7.095  31.848  0.00  0.00    +0.000 C 
ATOM    122  C   UNL     1     -16.548   9.373  32.615  0.00  0.00    +0.000 C 
BRANCH 120 123
ATOM    123  C   UNL     1     -14.342   7.928  32.588  0.00  0.00    +0.000 C 
ATOM    124  C   UNL     1     -14.449   6.662  33.315  0.00  0.00    +0.000 C 
ATOM    125  C   UNL     1     -13.257   7.705  31.564  0.00  0.00    +0.000 C 
BRANCH 123 126
ATOM    126  C   UNL     1     -13.814   8.929  33.674  0.00  0.00    +0.000 C 
ATOM    127  C   UNL     1     -14.180  10.309  33.251  0.00  0.00    +0.000 C 
ATOM    128  C   UNL     1     -12.311   8.910  33.738  0.00  0.00    +0.000 C 
ATOM    129  C   UNL     1     -14.305   8.551  35.019  0.00  0.00    +0.000 C 
ENDBRANCH 123 126
ENDBRANCH 120 123
ENDBRANCH 108 120
BRANCH 106 130
ATOM    130  O   UNL     1     -18.522   9.482  26.917  0.00  0.00    +0.000 OA
BRANCH 130 131
ATOM    131  C   UNL     1     -18.037   8.493  25.978  0.00  0.00    +0.000 C 
BRANCH 131 132
ATOM    132  C   UNL     1     -16.653   8.935  25.538  0.00  0.00    +0.000 C 
BRANCH 132 133
ATOM    133  O   UNL     1     -16.558   8.901  24.156  0.00  0.00    +0.000 OA
BRANCH 133 134
ATOM    134  C   UNL     1     -15.807   9.979  23.620  0.00  0.00    +0.000 C 
BRANCH 134 135
ATOM    135  C   UNL     1     -16.031  10.065  22.151  0.00  0.00    +0.000 C 
BRANCH 135 136
ATOM    136  O   UNL     1     -16.982   9.454  21.962  0.00  0.00    +0.000 OA
BRANCH 136 137
ATOM    137  C   UNL     1     -17.746   9.946  20.918  0.00  0.00    +0.000 C 
BRANCH 137 138
ATOM    138  C   UNL     1     -17.861   8.953  19.711  0.00  0.00    +0.000 C 
BRANCH 138 139
ATOM    139  O   UNL     1     -18.587   9.568  18.749  0.00  0.00    +0.000 OA
BRANCH 139 140
ATOM    140  C   UNL     1     -19.696   8.765  18.288  0.00  0.00    +0.000 C 
BRANCH 140 141
ATOM    141  C   UNL     1     -20.620   9.621  17.481  0.00  0.00    +0.000 C 
BRANCH 141 142
ATOM    142  O   UNL     1     -21.755   8.874  17.102  0.00  0.00    +0.000 OA
BRANCH 142 143
ATOM    143  C   UNL     1     -22.237   8.017  18.134  0.00  0.00    +0.000 C 
BRANCH 143 144
ATOM    144  C   UNL     1     -23.783   8.124  18.224  0.00  0.00    +0.000 C 
BRANCH 144 145
ATOM    145  O   UNL     1     -24.420   7.580  17.056  0.00  0.00    +0.000 OA
BRANCH 145 146
ATOM    146  C   UNL     1     -25.311   8.415  16.303  0.00  0.00    +0.000 C 
BRANCH 146 147
ATOM    147  C   UNL     1     -25.045   9.883  16.523  0.00  0.00    +0.000 C 
BRANCH 147 148
ATOM    148  O   UNL     1     -24.459  10.409  15.317  0.00  0.00    +0.000 OA
BRANCH 148 149
ATOM    149  C   UNL     1     -25.208  10.190  14.133  0.00  0.00    +0.000 C 
BRANCH 149 150
ATOM    150  C   UNL     1     -24.774  11.171  13.064  0.00  0.00    +0.000 C 
BRANCH 150 151
ATOM    151  O   UNL     1     -24.413  12.403  13.702  0.00  0.00    +0.000 OA
BRANCH 151 152
ATOM    152  C   UNL     1     -24.800  13.566  13.057  0.00  0.00    +0.000 C 
BRANCH 152 153
ATOM    153  C   UNL     1     -23.683  14.125  12.195  0.00  0.00    +0.000 C 
BRANCH 153 154
ATOM    154  O   UNL     1     -23.610  15.538  12.377  0.00  0.00    +0.000 OA
BRANCH 154 155
ATOM    155  C   UNL     1     -23.580  15.945  13.715  0.00  0.00    +0.000 C 
BRANCH 155 156
ATOM    156  C   UNL     1     -22.495  17.032  13.920  0.00  0.00    +0.000 C 
BRANCH 156 157
ATOM    157  O   UNL     1     -22.229  17.104  15.325  0.00  0.00    +0.000 OA
BRANCH 157 158
ATOM    158  C   UNL     1     -21.103  17.884  15.628  0.00  0.00    +0.000 C 
BRANCH 158 160
ATOM    159  O   UNL     1     -18.957  17.010  14.761  0.00  0.00    +0.000 OA
ATOM    160  C   UNL     1     -20.242  17.784  14.446  0.00  0.00    +0.000 C 
ENDBRANCH 158 160
ENDBRANCH 157 158
ENDBRANCH 156 157
ENDBRANCH 155 156
ENDBRANCH 154 155
ENDBRANCH 153 154
ENDBRANCH 152 153
ENDBRANCH 151 152
ENDBRANCH 150 151
ENDBRANCH 149 150
ENDBRANCH 148 149
ENDBRANCH 147 148
ENDBRANCH 146 147
ENDBRANCH 145 146
ENDBRANCH 144 145
ENDBRANCH 143 144
ENDBRANCH 142 143
ENDBRANCH 141 142
ENDBRANCH 140 141
ENDBRANCH 139 140
ENDBRANCH 138 139
ENDBRANCH 137 138
ENDBRANCH 136 137
ENDBRANCH 135 136
ENDBRANCH 134 135
ENDBRANCH 133 134
ENDBRANCH 132 133
ENDBRANCH 131 132
ENDBRANCH 130 131
ENDBRANCH 106 130
BRANCH  99 161
ATOM    161  O   UNL     1     -16.568  12.106  28.678  0.00  0.00    +0.000 OA
BRANCH 161 162
ATOM    162  C   UNL     1     -16.957  12.781  29.880  0.00  0.00    +0.000 C 
BRANCH 162 163
ATOM    163  C   UNL     1     -18.409  13.229  29.943  0.00  0.00    +0.000 C 
BRANCH 163 164
ATOM    164  O   UNL     1     -18.520  14.575  29.592  0.00  0.00    +0.000 OA
BRANCH 164 165
ATOM    165  C   UNL     1     -19.126  14.825  28.352  0.00  0.00    +0.000 C 
BRANCH 165 166
ATOM    166  C   UNL     1     -18.118  15.155  27.247  0.00  0.00    +0.000 C 
BRANCH 166 167
ATOM    167  O   UNL     1     -18.537  14.509  26.019  0.00  0.00    +0.000 OA
BRANCH 167 168
ATOM    168  C   UNL     1     -18.673  13.116  26.204  0.00  0.00    +0.000 C 
BRANCH 168 169
ATOM    169  C   UNL     1     -19.661  12.530  25.205  0.00  0.00    +0.000 C 
BRANCH 169 170
ATOM    170  O   UNL     1     -19.017  11.622  24.366  0.00  0.00    +0.000 OA
BRANCH 170 171
ATOM    171  C   UNL     1     -19.892  10.684  23.771  0.00  0.00    +0.000 C 
BRANCH 171 172
ATOM    172  C   UNL     1     -21.206  10.520  24.600  0.00  0.00    +0.000 C 
BRANCH 172 173
ATOM    173  O   UNL     1     -22.061   9.660  23.867  0.00  0.00    +0.000 OA
BRANCH 173 174
ATOM    174  C   UNL     1     -22.688   8.692  24.764  0.00  0.00    +0.000 C 
BRANCH 174 175
ATOM    175  C   UNL     1     -23.939   9.310  25.385  0.00  0.00    +0.000 C 
BRANCH 175 176
ATOM    176  O   UNL     1     -25.013   8.468  25.119  0.00  0.00    +0.000 OA
BRANCH 176 177
ATOM    177  C   UNL     1     -24.618   7.286  24.442  0.00  0.00    +0.000 C 
BRANCH 177 178
ATOM    178  C   UNL     1     -25.559   6.180  24.901  0.00  0.00    +0.000 C 
BRANCH 178 179
ATOM    179  O   UNL     1     -25.272   4.987  24.194  0.00  0.00    +0.000 OA
BRANCH 179 180
ATOM    180  C   UNL     1     -25.696   3.792  24.903  0.00  0.00    +0.000 C 
BRANCH 180 181
ATOM    181  C   UNL     1     -25.717   2.602  23.944  0.00  0.00    +0.000 C 
BRANCH 181 182
ATOM    182  O   UNL     1     -24.481   1.941  23.957  0.00  0.00    +0.000 OA
BRANCH 182 183
ATOM    183  C   UNL     1     -24.086   1.463  22.624  0.00  0.00    +0.000 C 
BRANCH 183 184
ATOM    184  C   UNL     1     -22.610   1.078  22.520  0.00  0.00    +0.000 C 
BRANCH 184 185
ATOM    185  O   UNL     1     -21.982   2.100  21.816  0.00  0.00    +0.000 OA
BRANCH 185 186
ATOM    186  C   UNL     1     -22.752   2.550  20.687  0.00  0.00    +0.000 C 
BRANCH 186 187
ATOM    187  C   UNL     1     -22.117   2.093  19.393  0.00  0.00    +0.000 C 
BRANCH 187 188
ATOM    188  O   UNL     1     -23.052   2.515  18.315  0.00  0.00    +0.000 OA
BRANCH 188 189
ATOM    189  C   UNL     1     -24.416   2.335  18.748  0.00  0.00    +0.000 C 
BRANCH 189 191
ATOM    190  O   UNL     1     -24.506   1.752  16.455  0.00  0.00    +0.000 OA
ATOM    191  C   UNL     1     -25.116   1.523  17.682  0.00  0.00    +0.000 C 
ENDBRANCH 189 191
ENDBRANCH 188 189
ENDBRANCH 187 188
ENDBRANCH 186 187
ENDBRANCH 185 186
ENDBRANCH 184 185
ENDBRANCH 183 184
ENDBRANCH 182 183
ENDBRANCH 181 182
ENDBRANCH 180 181
ENDBRANCH 179 180
ENDBRANCH 178 179
ENDBRANCH 177 178
ENDBRANCH 176 177
ENDBRANCH 175 176
ENDBRANCH 174 175
ENDBRANCH 173 174
ENDBRANCH 172 173
ENDBRANCH 171 172
ENDBRANCH 170 171
ENDBRANCH 169 170
ENDBRANCH 168 169
ENDBRANCH 167 168
ENDBRANCH 166 167
ENDBRANCH 165 166
ENDBRANCH 164 165
ENDBRANCH 163 164
ENDBRANCH 162 163
ENDBRANCH 161 162
ENDBRANCH  99 161
ENDBRANCH  97  98
BRANCH  97 192
ATOM    192  C   UNL     1     -12.686  12.760  29.582  0.00  0.00    +0.000 C 
BRANCH 192 193
ATOM    193  C   UNL     1     -12.172  12.595  30.919  0.00  0.00    +0.000 C 
ATOM    194  C   UNL     1     -11.418  11.414  31.310  0.00  0.00    +0.000 C 
BRANCH 193 195
ATOM    195  C   UNL     1     -12.403  13.602  31.973  0.00  0.00    +0.000 C 
ATOM    196  C   UNL     1     -13.924  13.799  32.068  0.00  0.00    +0.000 C 
ATOM    197  C   UNL     1     -11.941  13.094  33.345  0.00  0.00    +0.000 C 
BRANCH 195 198
ATOM    198  C   UNL     1     -11.657  14.986  31.601  0.00  0.00    +0.000 C 
ATOM    199  C   UNL     1     -11.783  15.977  32.674  0.00  0.00    +0.000 C 
ATOM    200  C   UNL     1     -12.204  15.549  30.330  0.00  0.00    +0.000 C 
BRANCH 198 201
ATOM    201  C   UNL     1     -10.111  14.946  31.305  0.00  0.00    +0.000 C 
ATOM    202  C   UNL     1      -9.452  16.287  31.422  0.00  0.00    +0.000 C 
ATOM    203  C   UNL     1      -9.805  14.481  29.906  0.00  0.00    +0.000 C 
ATOM    204  C   UNL     1      -9.434  14.123  32.295  0.00  0.00    +0.000 C 
ENDBRANCH 198 201
ENDBRANCH 195 198
ENDBRANCH 193 195
ENDBRANCH 192 193
ENDBRANCH  97 192
ENDBRANCH   1  97
BRANCH   1 205
ATOM    205  O   UNL     1     -12.293  12.559  26.955  0.00  0.00    +0.000 OA
BRANCH 205 206
ATOM    206  C   UNL     1     -13.417  13.304  26.547  0.00  0.00    +0.000 C 
BRANCH 206 207
ATOM    207  C   UNL     1     -13.283  13.787  25.132  0.00  0.00    +0.000 C 
BRANCH 207 208
ATOM    208  O   UNL     1     -14.168  13.079  24.255  0.00  0.00    +0.000 OA
BRANCH 208 209
ATOM    209  C   UNL     1     -15.522  13.579  24.283  0.00  0.00    +0.000 C 
BRANCH 209 210
ATOM    210  C   UNL     1     -15.569  15.012  23.816  0.00  0.00    +0.000 C 
BRANCH 210 211
ATOM    211  C   UNL     1     -16.421  15.211  22.562  0.00  0.00    +0.000 C 
BRANCH 211 212
ATOM    212  C   UNL     1     -17.602  14.266  22.545  0.00  0.00    +0.000 C 
BRANCH 212 213
ATOM    213  C   UNL     1     -18.890  15.018  22.625  0.00  0.00    +0.000 C 
BRANCH 213 214
ATOM    214  O   UNL     1     -19.918  14.316  22.099  0.00  0.00    +0.000 OA
BRANCH 214 215
ATOM    215  C   UNL     1     -19.462  13.243  21.229  0.00  0.00    +0.000 C 
BRANCH 215 216
ATOM    216  C   UNL     1     -20.503  12.844  20.205  0.00  0.00    +0.000 C 
BRANCH 216 217
ATOM    217  O   UNL     1     -20.909  11.567  20.419  0.00  0.00    +0.000 OA
BRANCH 217 218
ATOM    218  C   UNL     1     -22.249  10.923  20.553  0.00  0.00    +0.000 C 
BRANCH 218 219
ATOM    219  C   UNL     1     -23.131  11.570  19.433  0.00  0.00    +0.000 C 
BRANCH 219 220
ATOM    220  O   UNL     1     -24.186  12.265  19.985  0.00  0.00    +0.000 OA
BRANCH 220 221
ATOM    221  C   UNL     1     -25.485  11.658  19.863  0.00  0.00    +0.000 C 
BRANCH 221 222
ATOM    222  C   UNL     1     -26.423  12.631  19.153  0.00  0.00    +0.000 C 
BRANCH 222 223
ATOM    223  O   UNL     1     -25.727  13.735  18.631  0.00  0.00    +0.000 OA
BRANCH 223 224
ATOM    224  C   UNL     1     -26.261  14.991  19.007  0.00  0.00    +0.000 C 
BRANCH 224 225
ATOM    225  C   UNL     1     -25.420  15.515  20.175  0.00  0.00    +0.000 C 
BRANCH 225 226
ATOM    226  O   UNL     1     -24.066  15.709  19.779  0.00  0.00    +0.000 OA
BRANCH 226 227
ATOM    227  C   UNL     1     -23.539  16.960  20.183  0.00  0.00    +0.000 C 
BRANCH 227 228
ATOM    228  C   UNL     1     -22.132  16.749  20.681  0.00  0.00    +0.000 C 
BRANCH 228 229
ATOM    229  O   UNL     1     -21.305  16.161  19.715  0.00  0.00    +0.000 OA
BRANCH 229 230
ATOM    230  C   UNL     1     -20.386  17.066  19.164  0.00  0.00    +0.000 C 
BRANCH 230 231
ATOM    231  C   UNL     1     -18.989  16.534  19.278  0.00  0.00    +0.000 C 
BRANCH 231 232
ATOM    232  O   UNL     1     -18.344  16.670  18.036  0.00  0.00    +0.000 OA
BRANCH 232 233
ATOM    233  C   UNL     1     -17.163  17.437  18.101  0.00  0.00    +0.000 C 
BRANCH 233 234
ATOM    234  C   UNL     1     -15.958  16.534  18.250  0.00  0.00    +0.000 C 
ATOM    235  O   UNL     1     -15.320  16.818  19.475  0.00  0.00    +0.000 OA
ENDBRANCH 233 234
ENDBRANCH 232 233
ENDBRANCH 231 232
ENDBRANCH 230 231
ENDBRANCH 229 230
ENDBRANCH 228 229
ENDBRANCH 227 228
ENDBRANCH 226 227
ENDBRANCH 225 226
ENDBRANCH 224 225
ENDBRANCH 223 224
ENDBRANCH 222 223
ENDBRANCH 221 222
ENDBRANCH 220 221
ENDBRANCH 219 220
ENDBRANCH 218 219
ENDBRANCH 217 218
ENDBRANCH 216 217
ENDBRANCH 215 216
ENDBRANCH 214 215
ENDBRANCH 213 214
ENDBRANCH 212 213
ENDBRANCH 211 212
ENDBRANCH 210 211
ENDBRANCH 209 210
ENDBRANCH 208 209
ENDBRANCH 207 208
ENDBRANCH 206 207
ENDBRANCH 205 206
ENDBRANCH   1 205
TORSDOF 175
BEGIN_RES LEU A  10
REMARK  2 active torsions:
REMARK  status: ('A' for Active; 'I' for Inactive)
REMARK    1  A    between atoms: CA   and  CB  
REMARK    2  A    between atoms: CB   and  CG  
ROOT
ATOM      1  CA  LEU A  10     -10.775  -4.871   5.898  1.00 25.14     0.177 C 
ENDROOT
BRANCH   1   2
ATOM      2  CB  LEU A  10     -12.191  -4.387   6.226  1.00 17.87     0.038 C 
BRANCH   2   3
ATOM      3  CG  LEU A  10     -12.726  -3.308   5.282  1.00 24.95    -0.020 C 
ATOM      4  CD2 LEU A  10     -11.700  -2.234   5.140  1.00 26.38     0.009 C 
ATOM      5  CD1 LEU A  10     -14.034  -2.734   5.798  1.00 28.12     0.009 C 
ENDBRANCH   2   3
ENDBRANCH   1   2
END_RES LEU A  10
BEGIN_RES CYS A  12
REMARK  2 active torsions:
REMARK  status: ('A' for Active; 'I' for Inactive)
REMARK    3  A    between atoms: CA   and  CB  
REMARK    4  A    between atoms: CB   and  SG  
ROOT
ATOM      6  CA  CYS A  12      -8.555   0.470   8.750  1.00 23.16     0.185 C 
ENDROOT
BRANCH   6   7
ATOM      7  CB  CYS A  12      -9.828   0.763   9.555  1.00 20.43     0.105 C 
BRANCH   7   8
ATOM      8  SG  CYS A  12     -10.440   2.475   9.489  1.00 24.64    -0.180 SA
ATOM      9  H04 CYS A  12     -11.667   2.532  10.023  1.00 24.64     0.101 HD
ENDBRANCH   7   8
ENDBRANCH   6   7
END_RES CYS A  12
BEGIN_RES GLN A  14
REMARK  3 active torsions:
REMARK  status: ('A' for Active; 'I' for Inactive)
REMARK    5  A    between atoms: CA   and  CB  
REMARK    6  A    between atoms: CB   and  CG  
REMARK    7  A    between atoms: CG   and  CD  
REMARK       I    between atoms: CD   and  NE2 
ROOT
ATOM     10  CA  GLN A  14      -4.645   5.402  11.377  1.00 10.43     0.177 C 
ENDROOT
BRANCH  10  11
ATOM     11  CB  GLN A  14      -5.541   5.549  12.608  1.00 14.45     0.044 C 
BRANCH  11  12
ATOM     12  CG  GLN A  14      -6.545   6.674  12.509  1.00 13.74     0.105 C 
BRANCH  12  13
ATOM     13  CD  GLN A  14      -5.898   8.035  12.604  1.00 16.29     0.215 C 
ATOM     14  NE2 GLN A  14      -6.426   8.988  11.866  1.00  8.57    -0.370 N 
ATOM     15  H06 GLN A  14      -6.036   9.919  11.890  1.00  8.57     0.159 HD
ATOM     16  H07 GLN A  14      -7.222   8.788  11.278  1.00  8.57     0.159 HD
ATOM     17  OE1 GLN A  14      -4.937   8.227  13.333  1.00 23.55    -0.274 OA
ENDBRANCH  12  13
ENDBRANCH  11  12
ENDBRANCH  10  11
END_RES GLN A  14
BEGIN_RES SER A  16
REMARK  2 active torsions:
REMARK  status: ('A' for Active; 'I' for Inactive)
REMARK    8  A    between atoms: CA   and  CB  
REMARK    9  A    between atoms: CB   and  OG  
ROOT
ATOM     18  CA  SER A  16      -1.305  10.019  14.282  1.00  2.34     0.200 C 
ENDROOT
BRANCH  18  19
ATOM     19  CB  SER A  16      -2.242   9.935  15.479  1.00  3.12     0.199 C 
BRANCH  19  20
ATOM     20  OG  SER A  16      -2.482  11.227  16.008  1.00  1.00    -0.398 OA
ATOM     21  H04 SER A  16      -1.658  11.599  16.331  1.00  1.00     0.209 HD
ENDBRANCH  19  20
ENDBRANCH  18  19
END_RES SER A  16
BEGIN_RES LEU A  32
REMARK  2 active torsions:
REMARK  status: ('A' for Active; 'I' for Inactive)
REMARK   10  A    between atoms: CA   and  CB  
REMARK   11  A    between atoms: CB   and  CG  
ROOT
ATOM     22  CA  LEU A  32     -10.272  -4.106   1.587  1.00 16.16     0.177 C 
ENDROOT
BRANCH  22  23
ATOM     23  CB  LEU A  32     -11.613  -3.858   0.880  1.00 12.35     0.038 C 
BRANCH  23  24
ATOM     24  CG  LEU A  32     -12.808  -4.338   1.730  1.00  9.77    -0.020 C 
ATOM     25  CD1 LEU A  32     -13.991  -4.647   0.844  1.00  4.35     0.009 C 
ATOM     26  CD2 LEU A  32     -12.440  -5.559   2.532  1.00 10.60     0.009 C 
ENDBRANCH  23  24
ENDBRANCH  22  23
END_RES LEU A  32
BEGIN_RES HIS A  38
REMARK  2 active torsions:
REMARK  status: ('A' for Active; 'I' for Inactive)
REMARK   12  A    between atoms: CA   and  CB  
REMARK   13  A    between atoms: CB   and  CG  
ROOT
ATOM     27  CA  HIS A  38     -10.959   4.941   1.621  1.00 16.94     0.182 C 
ENDROOT
BRANCH  27  28
ATOM     28  CB  HIS A  38     -11.810   4.840   2.881  1.00 15.47     0.095 C 
BRANCH  28  29
ATOM     29  CG  HIS A  38     -12.998   3.945   2.737  1.00 18.62     0.053 A 
ATOM     30  CD2 HIS A  38     -14.165   4.118   2.070  1.00 15.06     0.116 A 
ATOM     31  NE2 HIS A  38     -14.898   2.971   2.240  1.00 18.12    -0.359 N 
ATOM     32  CE1 HIS A  38     -14.210   2.126   2.983  1.00 14.78     0.207 A 
ATOM     33  H06 HIS A  38     -15.818   2.802   1.857  1.00 18.12     0.166 HD
ATOM     34  ND1 HIS A  38     -13.060   2.688   3.297  1.00 16.58    -0.247 NA
ENDBRANCH  28  29
ENDBRANCH  27  28
END_RES HIS A  38
BEGIN_RES TRP A  63
REMARK  2 active torsions:
REMARK  status: ('A' for Active; 'I' for Inactive)
REMARK   14  A    between atoms: CA   and  CB  
REMARK   15  A    between atoms: CB   and  CG  
ROOT
ATOM     35  CA  TRP A  63     -22.437   6.257   6.543  1.00 27.04     0.181 C 
ENDROOT
BRANCH  35  36
ATOM     36  CB  TRP A  63     -22.360   6.642   5.068  1.00 31.37     0.075 C 
BRANCH  36  37
ATOM     37  CG  TRP A  63     -20.953   6.778   4.526  1.00 34.37    -0.028 A 
ATOM     38  CD2 TRP A  63     -19.895   5.813   4.607  1.00 33.79    -0.002 A 
ATOM     39  CE3 TRP A  63     -19.769   4.555   5.200  1.00 32.99     0.014 A 
ATOM     40  CE2 TRP A  63     -18.791   6.343   3.903  1.00 35.84     0.042 A 
ATOM     41  CZ3 TRP A  63     -18.566   3.876   5.077  1.00 32.93     0.001 A 
ATOM     42  CH2 TRP A  63     -17.486   4.431   4.372  1.00 39.24     0.002 A 
ATOM     43  CZ2 TRP A  63     -17.580   5.661   3.778  1.00 37.99     0.030 A 
ATOM     44  NE1 TRP A  63     -19.165   7.569   3.423  1.00 37.98    -0.365 N 
ATOM     45  H06 TRP A  63     -18.583   8.188   2.878  1.00 37.98     0.165 HD
ATOM     46  CD1 TRP A  63     -20.461   7.820   3.804  1.00 38.16     0.096 A 
ENDBRANCH  36  37
ENDBRANCH  35  36
END_RES TRP A  63
BEGIN_RES LEU A  66
REMARK  2 active torsions:
REMARK  status: ('A' for Active; 'I' for Inactive)
REMARK   16  A    between atoms: CA   and  CB  
REMARK   17  A    between atoms: CB   and  CG  
ROOT
ATOM     47  CA  LEU A  66     -20.004   6.489  11.120  1.00 10.90     0.177 C 
ENDROOT
BRANCH  47  48
ATOM     48  CB  LEU A  66     -19.626   5.453  10.069  1.00 13.57     0.038 C 
BRANCH  48  49
ATOM     49  CG  LEU A  66     -19.822   3.982  10.434  1.00  8.73    -0.020 C 
ATOM     50  CD1 LEU A  66     -21.182   3.503   9.998  1.00 14.23     0.009 C 
ATOM     51  CD2 LEU A  66     -18.747   3.174   9.755  1.00  1.92     0.009 C 
ENDBRANCH  48  49
ENDBRANCH  47  48
END_RES LEU A  66
BEGIN_RES PHE A  70
REMARK  2 active torsions:
REMARK  status: ('A' for Active; 'I' for Inactive)
REMARK   18  A    between atoms: CA   and  CB  
REMARK   19  A    between atoms: CB   and  CG  
ROOT
ATOM     52  CA  PHE A  70     -14.974   9.434  13.165  1.00  8.78     0.180 C 
ENDROOT
BRANCH  52  53
ATOM     53  CB  PHE A  70     -14.707   9.132  11.681  1.00  6.33     0.073 C 
BRANCH  53  54
ATOM     54  CG  PHE A  70     -13.965   7.843  11.457  1.00  3.42    -0.056 A 
ATOM     55  CD1 PHE A  70     -13.495   7.093  12.525  1.00 13.88     0.007 A 
ATOM     56  CE1 PHE A  70     -12.761   5.913  12.307  1.00 12.71     0.001 A 
ATOM     57  CZ  PHE A  70     -12.496   5.481  11.007  1.00  4.21     0.000 A 
ATOM     58  CE2 PHE A  70     -12.961   6.219   9.935  1.00  2.83     0.001 A 
ATOM     59  CD2 PHE A  70     -13.694   7.396  10.163  1.00  1.00     0.007 A 
ENDBRANCH  53  54
ENDBRANCH  52  53
END_RES PHE A  70
BEGIN_RES TYR A  73
REMARK  3 active torsions:
REMARK  status: ('A' for Active; 'I' for Inactive)
REMARK   20  A    between atoms: CA   and  CB  
REMARK   21  A    between atoms: CB   and  CG  
REMARK   22  A    between atoms: CZ   and  OH  
ROOT
ATOM     60  CA  TYR A  73     -13.212  10.166  17.260  1.00 12.17     0.180 C 
ENDROOT
BRANCH  60  61
ATOM     61  CB  TYR A  73     -13.301   8.846  16.517  1.00 12.84     0.073 C 
BRANCH  61  62
ATOM     62  CG  TYR A  73     -11.988   8.154  16.398  1.00 15.89    -0.056 A 
ATOM     63  CD1 TYR A  73     -11.357   7.632  17.506  1.00 16.00     0.010 A 
ATOM     64  CE1 TYR A  73     -10.113   7.011  17.401  1.00 13.55     0.037 A 
ATOM     65  CZ  TYR A  73      -9.504   6.917  16.165  1.00 18.13     0.065 A 
ATOM     66  CE2 TYR A  73     -10.114   7.429  15.044  1.00 15.89     0.037 A 
ATOM     67  CD2 TYR A  73     -11.354   8.044  15.166  1.00 21.86     0.010 A 
BRANCH  65  68
ATOM     68  OH  TYR A  73      -8.282   6.304  16.039  1.00 12.12    -0.361 OA
ATOM     69  H08 TYR A  73      -8.406   5.355  15.958  1.00 12.12     0.217 HD
ENDBRANCH  65  68
ENDBRANCH  61  62
ENDBRANCH  60  61
END_RES TYR A  73
BEGIN_RES PHE A  77
REMARK  2 active torsions:
REMARK  status: ('A' for Active; 'I' for Inactive)
REMARK   23  A    between atoms: CA   and  CB  
REMARK   24  A    between atoms: CB   and  CG  
ROOT
ATOM     70  CA  PHE A  77      -8.400  10.581  20.110  1.00 17.17     0.180 C 
ENDROOT
BRANCH  70  71
ATOM     71  CB  PHE A  77      -8.228   9.750  18.851  1.00 10.44     0.073 C 
BRANCH  71  72
ATOM     72  CG  PHE A  77      -6.878   9.117  18.726  1.00  6.07    -0.056 A 
ATOM     73  CD2 PHE A  77      -5.838   9.797  18.136  1.00  9.61     0.007 A 
ATOM     74  CE2 PHE A  77      -4.580   9.218  18.017  1.00  1.00     0.001 A 
ATOM     75  CZ  PHE A  77      -4.360   7.939  18.500  1.00  1.92     0.000 A 
ATOM     76  CE1 PHE A  77      -5.390   7.245  19.095  1.00  9.25     0.001 A 
ATOM     77  CD1 PHE A  77      -6.647   7.838  19.206  1.00  9.63     0.007 A 
ENDBRANCH  71  72
ENDBRANCH  70  71
END_RES PHE A  77
BEGIN_RES LEU A  96
REMARK  2 active torsions:
REMARK  status: ('A' for Active; 'I' for Inactive)
REMARK   25  A    between atoms: CA   and  CB  
REMARK   26  A    between atoms: CB   and  CG  
ROOT
ATOM     78  CA  LEU A  96       0.717   6.481  17.359  1.00 16.08     0.177 C 
ENDROOT
BRANCH  78  79
ATOM     79  CB  LEU A  96      -0.370   7.101  18.230  1.00 18.83     0.038 C 
BRANCH  79  80
ATOM     80  CG  LEU A  96      -0.869   6.200  19.360  1.00 19.03    -0.020 C 
ATOM     81  CD1 LEU A  96       0.323   5.604  20.071  1.00 28.17     0.009 C 
ATOM     82  CD2 LEU A  96      -1.670   7.002  20.359  1.00 22.01     0.009 C 
ENDBRANCH  79  80
ENDBRANCH  78  79
END_RES LEU A  96
BEGIN_RES VAL A  98
REMARK  1 active torsions:
REMARK  status: ('A' for Active; 'I' for Inactive)
REMARK   27  A    between atoms: CA   and  CB  
ROOT
ATOM     83  CA  VAL A  98      -3.928   2.082  14.897  1.00 19.83     0.180 C 
ENDROOT
BRANCH  83  84
ATOM     84  CB  VAL A  98      -5.203   2.807  15.281  1.00 17.87     0.009 C 
ATOM     85  CG2 VAL A  98      -4.934   4.282  15.432  1.00 29.90     0.012 C 
ATOM     86  CG1 VAL A  98      -5.748   2.226  16.569  1.00 14.79     0.012 C 
ENDBRANCH  83  84
END_RES VAL A  98
BEGIN_RES ASN A 112
REMARK  2 active torsions:
REMARK  status: ('A' for Active; 'I' for Inactive)
REMARK   28  A    between atoms: CA   and  CB  
REMARK   29  A    between atoms: CB   and  CG  
REMARK       I    between atoms: CG   and  ND2 
ROOT
ATOM     87  CA  ASN A 112     -11.790  -8.793  14.069  1.00 37.70     0.185 C 
ENDROOT
BRANCH  87  88
ATOM     88  CB  ASN A 112     -12.992  -7.945  14.465  1.00 26.24     0.137 C 
BRANCH  88  89
ATOM     89  CG  ASN A 112     -13.940  -8.661  15.400  1.00 21.77     0.217 C 
ATOM     90  ND2 ASN A 112     -13.617  -8.643  16.693  1.00  9.31    -0.370 N 
ATOM     91  H04 ASN A 112     -14.209  -9.106  17.368  1.00  9.31     0.159 HD
ATOM     92  H05 ASN A 112     -12.779  -8.167  16.997  1.00  9.31     0.159 HD
ATOM     93  OD1 ASN A 112     -14.950  -9.230  14.969  1.00 21.61    -0.274 OA
ENDBRANCH  88  89
ENDBRANCH  87  88
END_RES ASN A 112
BEGIN_RES PHE A 114
REMARK  2 active torsions:
REMARK  status: ('A' for Active; 'I' for Inactive)
REMARK   30  A    between atoms: CA   and  CB  
REMARK   31  A    between atoms: CB   and  CG  
ROOT
ATOM     94  CA  PHE A 114      -7.754  -3.619  17.012  1.00 26.06     0.180 C 
ENDROOT
BRANCH  94  95
ATOM     95  CB  PHE A 114      -8.890  -3.080  17.867  1.00 19.95     0.073 C 
BRANCH  95  96
ATOM     96  CG  PHE A 114      -8.683  -1.666  18.305  1.00 17.65    -0.056 A 
ATOM     97  CD1 PHE A 114      -8.189  -0.711  17.420  1.00 13.01     0.007 A 
ATOM     98  CE1 PHE A 114      -7.968   0.596  17.834  1.00  6.74     0.001 A 
ATOM     99  CZ  PHE A 114      -8.243   0.967  19.147  1.00  6.27     0.000 A 
ATOM    100  CE2 PHE A 114      -8.736   0.026  20.036  1.00 17.36     0.001 A 
ATOM    101  CD2 PHE A 114      -8.955  -1.289  19.612  1.00 18.39     0.007 A 
ENDBRANCH  95  96
ENDBRANCH  94  95
END_RES PHE A 114
BEGIN_RES VAL A 116
REMARK  1 active torsions:
REMARK  status: ('A' for Active; 'I' for Inactive)
REMARK   32  A    between atoms: CA   and  CB  
ROOT
ATOM    102  CA  VAL A 116      -2.467   0.283  18.565  1.00 13.48     0.180 C 
ENDROOT
BRANCH 102 103
ATOM    103  CB  VAL A 116      -3.101   1.238  19.599  1.00 20.86     0.009 C 
ATOM    104  CG1 VAL A 116      -3.012   2.678  19.087  1.00 25.01     0.012 C 
ATOM    105  CG2 VAL A 116      -4.528   0.840  19.896  1.00 25.34     0.012 C 
ENDBRANCH 102 103
END_RES VAL A 116
BEGIN_RES ILE A 123
REMARK  2 active torsions:
REMARK  status: ('A' for Active; 'I' for Inactive)
REMARK   33  A    between atoms: CA   and  CB  
REMARK   34  A    between atoms: CB   and  CG1 
ROOT
ATOM    106  CA  ILE A 123       1.557  -1.626  23.222  1.00 15.07     0.180 C 
ENDROOT
BRANCH 106 107
ATOM    107  CB  ILE A 123       1.697  -0.112  23.461  1.00 14.41     0.013 C 
ATOM    108  CG2 ILE A 123       3.110   0.211  23.915  1.00 18.35     0.012 C 
BRANCH 107 109
ATOM    109  CG1 ILE A 123       1.363   0.659  22.186  1.00 15.23     0.002 C 
ATOM    110  CD1 ILE A 123       0.260   1.674  22.364  1.00 14.67     0.005 C 
ENDBRANCH 107 109
ENDBRANCH 106 107
END_RES ILE A 123
BEGIN_RES LEU A 124
REMARK  2 active torsions:
REMARK  status: ('A' for Active; 'I' for Inactive)
REMARK   35  A    between atoms: CA   and  CB  
REMARK   36  A    between atoms: CB   and  CG  
ROOT
ATOM    111  CA  LEU A 124      -2.057  -2.686  23.524  1.00 11.86     0.177 C 
ENDROOT
BRANCH 111 112
ATOM    112  CB  LEU A 124      -2.698  -1.652  24.429  1.00 14.60     0.038 C 
BRANCH 112 113
ATOM    113  CG  LEU A 124      -2.636  -0.254  23.833  1.00 16.19    -0.020 C 
ATOM    114  CD1 LEU A 124      -4.060   0.194  23.453  1.00 22.07     0.009 C 
ATOM    115  CD2 LEU A 124      -1.996   0.687  24.824  1.00  9.12     0.009 C 
ENDBRANCH 112 113
ENDBRANCH 111 112
END_RES LEU A 124
BEGIN_RES PHE A 126
REMARK  2 active torsions:
REMARK  status: ('A' for Active; 'I' for Inactive)
REMARK   37  A    between atoms: CA   and  CB  
REMARK   38  A    between atoms: CB   and  CG  
ROOT
ATOM    116  CA  PHE A 126      -8.784  -4.792  22.233  1.00 23.15     0.180 C 
ENDROOT
BRANCH 116 117
ATOM    117  CB  PHE A 126      -9.823  -4.011  21.461  1.00 20.65     0.073 C 
BRANCH 117 118
ATOM    118  CG  PHE A 126     -10.921  -3.496  22.306  1.00 23.65    -0.056 A 
ATOM    119  CD2 PHE A 126     -10.690  -2.488  23.226  1.00 36.63     0.007 A 
ATOM    120  CE2 PHE A 126     -11.733  -1.999  24.026  1.00 36.27     0.001 A 
ATOM    121  CZ  PHE A 126     -13.008  -2.528  23.898  1.00 18.06     0.000 A 
ATOM    122  CE1 PHE A 126     -13.243  -3.532  22.980  1.00  5.50     0.001 A 
ATOM    123  CD1 PHE A 126     -12.200  -4.010  22.187  1.00 15.29     0.007 A 
ENDBRANCH 117 118
ENDBRANCH 116 117
END_RES PHE A 126
BEGIN_RES TRP A 131
REMARK  2 active torsions:
REMARK  status: ('A' for Active; 'I' for Inactive)
REMARK   39  A    between atoms: CA   and  CB  
REMARK   40  A    between atoms: CB   and  CG  
ROOT
ATOM    124  CA  TRP A 131      -8.096  -3.335  26.542  1.00 14.52     0.181 C 
ENDROOT
BRANCH 124 125
ATOM    125  CB  TRP A 131      -7.651  -1.877  26.607  1.00 13.06     0.075 C 
BRANCH 125 126
ATOM    126  CG  TRP A 131      -7.940  -1.083  25.352  1.00 16.97    -0.028 A 
ATOM    127  CD2 TRP A 131      -8.932  -0.064  25.199  1.00 11.34    -0.002 A 
ATOM    128  CE2 TRP A 131      -8.850   0.410  23.875  1.00  5.87     0.042 A 
ATOM    129  CE3 TRP A 131      -9.886   0.492  26.058  1.00  3.80     0.014 A 
ATOM    130  CZ2 TRP A 131      -9.684   1.418  23.389  1.00  1.35     0.030 A 
ATOM    131  NE1 TRP A 131      -7.854  -0.289  23.249  1.00 13.90    -0.365 N 
ATOM    132  CH2 TRP A 131     -10.610   1.947  24.254  1.00  1.00     0.002 A 
ATOM    133  CZ3 TRP A 131     -10.716   1.491  25.581  1.00  1.00     0.001 A 
ATOM    134  CD1 TRP A 131      -7.311  -1.183  24.142  1.00 17.22     0.096 A 
ATOM    135  H07 TRP A 131      -7.564  -0.167  22.289  1.00 13.90     0.165 HD
ENDBRANCH 125 126
ENDBRANCH 124 125
END_RES TRP A 131
BEGIN_RES LEU A 148
REMARK  2 active torsions:
REMARK  status: ('A' for Active; 'I' for Inactive)
REMARK   41  A    between atoms: CA   and  CB  
REMARK   42  A    between atoms: CB   and  CG  
ROOT
ATOM    136  CA  LEU A 148      -9.018   3.259  29.295  1.00 16.99     0.177 C 
ENDROOT
BRANCH 136 137
ATOM    137  CB  LEU A 148      -8.166   2.574  28.236  1.00  6.39     0.038 C 
BRANCH 137 138
ATOM    138  CG  LEU A 148      -6.747   3.027  27.960  1.00  1.00    -0.020 C 
ATOM    139  CD2 LEU A 148      -6.751   4.353  27.257  1.00  1.00     0.009 C 
ATOM    140  CD1 LEU A 148      -6.068   1.972  27.107  1.00  2.71     0.009 C 
ENDBRANCH 137 138
ENDBRANCH 136 137
END_RES LEU A 148
BEGIN_RES THR A 154
REMARK  2 active torsions:
REMARK  status: ('A' for Active; 'I' for Inactive)
REMARK   43  A    between atoms: CA   and  CB  
REMARK   44  A    between atoms: CB   and  OG1 
ROOT
ATOM    141  CA  THR A 154     -15.990   3.959  24.426  1.00 20.45     0.205 C 
ENDROOT
BRANCH 141 142
ATOM    142  CB  THR A 154     -14.777   4.829  24.694  1.00 16.79     0.146 C 
ATOM    143  CG2 THR A 154     -13.595   4.347  23.875  1.00 20.24     0.042 C 
BRANCH 142 144
ATOM    144  OG1 THR A 154     -15.081   6.178  24.318  1.00 18.84    -0.393 OA
ATOM    145  H06 THR A 154     -15.761   6.527  24.898  1.00 18.84     0.210 HD
ENDBRANCH 142 144
ENDBRANCH 141 142
END_RES THR A 154
BEGIN_RES VAL A 158
REMARK  1 active torsions:
REMARK  status: ('A' for Active; 'I' for Inactive)
REMARK   45  A    between atoms: CA   and  CB  
ROOT
ATOM    146  CA  VAL A 158     -15.487  -0.189  19.892  1.00 15.49     0.180 C 
ENDROOT
BRANCH 146 147
ATOM    147  CB  VAL A 158     -14.291  -0.273  20.822  1.00  6.52     0.009 C 
ATOM    148  CG1 VAL A 158     -13.205  -1.139  20.227  1.00  1.00     0.012 C 
ATOM    149  CG2 VAL A 158     -13.783   1.112  21.077  1.00  5.99     0.012 C 
ENDBRANCH 146 147
END_RES VAL A 158
BEGIN_RES LEU A 161
REMARK  2 active torsions:
REMARK  status: ('A' for Active; 'I' for Inactive)
REMARK   46  A    between atoms: CA   and  CB  
REMARK   47  A    between atoms: CB   and  CG  
ROOT
ATOM    150  CA  LEU A 161     -18.031  -1.858  15.935  1.00 13.31     0.177 C 
ENDROOT
BRANCH 150 151
ATOM    151  CB  LEU A 161     -17.046  -0.706  16.001  1.00 14.13     0.038 C 
BRANCH 151 152
ATOM    152  CG  LEU A 161     -17.408   0.538  15.200  1.00 19.39    -0.020 C 
ATOM    153  CD2 LEU A 161     -17.223   0.281  13.724  1.00 27.75     0.009 C 
ATOM    154  CD1 LEU A 161     -16.525   1.675  15.640  1.00 18.59     0.009 C 
ENDBRANCH 151 152
ENDBRANCH 150 151
END_RES LEU A 161
BEGIN_RES GLN A 168
REMARK  3 active torsions:
REMARK  status: ('A' for Active; 'I' for Inactive)
REMARK   48  A    between atoms: CA   and  CB  
REMARK   49  A    between atoms: CB   and  CG  
REMARK   50  A    between atoms: CG   and  CD  
REMARK       I    between atoms: CD   and  NE2 
ROOT
ATOM    155  CA  GLN A 168     -22.035  -6.020   8.155  1.00 30.94     0.177 C 
ENDROOT
BRANCH 155 156
ATOM    156  CB  GLN A 168     -23.054  -5.218   8.946  1.00 41.76     0.044 C 
BRANCH 156 157
ATOM    157  CG  GLN A 168     -24.430  -5.825   8.987  1.00 61.20     0.105 C 
BRANCH 157 158
ATOM    158  CD  GLN A 168     -24.880  -6.112  10.406  1.00 75.49     0.215 C 
ATOM    159  NE2 GLN A 168     -24.058  -5.712  11.378  1.00 85.00    -0.370 N 
ATOM    160  H06 GLN A 168     -24.300  -5.877  12.344  1.00 85.00     0.159 HD
ATOM    161  H07 GLN A 168     -23.192  -5.244  11.146  1.00 85.00     0.159 HD
ATOM    162  OE1 GLN A 168     -25.951  -6.693  10.632  1.00 73.64    -0.274 OA
ENDBRANCH 157 158
ENDBRANCH 156 157
ENDBRANCH 155 156
END_RES GLN A 168
ENDMDL
MODEL 6
REMARK VINA RESULT:      -5.5      3.051      8.780
REMARK  Name = human_CD1d_Tyloxapol_pred.rank_0
REMARK  175 active torsions:
REMARK  status: ('A' for Active; 'I' for Inactive)
REMARK    1  A    between atoms: C_1  and  C_3
REMARK    2  A    between atoms: C_3  and  O_4
REMARK    3  A    between atoms: O_4  and  C_5
REMARK    4  A    between atoms: C_5  and  C_7
REMARK    5  A    between atoms: O_6  and  C_7
REMARK    6  A    between atoms: O_6  and  C_9
REMARK    7  A    between atoms: O_8  and  C_11
REMARK    8  A    between atoms: O_8  and  C_13
REMARK    9  A    between atoms: C_9  and  C_11
REMARK   10  A    between atoms: O_10  and  C_15
REMARK   11  A    between atoms: O_10  and  C_17
REMARK   12  A    between atoms: O_12  and  C_19
REMARK   13  A    between atoms: O_12  and  C_21
REMARK   14  A    between atoms: C_13  and  C_15
REMARK   15  A    between atoms: O_14  and  C_23
REMARK   16  A    between atoms: O_14  and  C_25
REMARK   17  A    between atoms: O_16  and  C_27
REMARK   18  A    between atoms: O_16  and  C_29
REMARK   19  A    between atoms: C_17  and  C_19
REMARK   20  A    between atoms: O_18  and  C_37
REMARK   21  A    between atoms: O_18  and  C_39
REMARK   22  A    between atoms: O_20  and  C_41
REMARK   23  A    between atoms: O_20  and  C_43
REMARK   24  A    between atoms: C_21  and  C_23
REMARK   25  A    between atoms: O_22  and  C_49
REMARK   26  A    between atoms: O_22  and  C_51
REMARK   27  A    between atoms: O_24  and  C_53
REMARK   28  A    between atoms: O_24  and  C_55
REMARK   29  A    between atoms: C_25  and  C_27
REMARK   30  A    between atoms: O_26  and  C_57
REMARK   31  A    between atoms: O_26  and  C_59
REMARK   32  A    between atoms: O_28  and  C_61
REMARK   33  A    between atoms: O_28  and  C_63
REMARK   34  A    between atoms: C_29  and  C_31
REMARK   35  A    between atoms: O_30  and  C_65
REMARK   36  A    between atoms: O_30  and  C_67
REMARK   37  A    between atoms: C_31  and  C_33
REMARK   38  A    between atoms: O_32  and  C_69
REMARK   39  A    between atoms: O_32  and  C_71
REMARK   40  A    between atoms: C_33  and  C_35
REMARK   41  A    between atoms: O_34  and  C_73
REMARK   42  A    between atoms: O_34  and  C_75
REMARK   43  A    between atoms: C_35  and  C_37
REMARK   44  A    between atoms: O_36  and  C_77
REMARK   45  A    between atoms: O_36  and  C_79
REMARK   46  A    between atoms: O_38  and  C_81
REMARK   47  A    between atoms: O_38  and  C_83
REMARK   48  A    between atoms: C_39  and  C_41
REMARK   49  A    between atoms: O_40  and  C_85
REMARK   50  A    between atoms: O_40  and  C_87
REMARK   51  A    between atoms: C_43  and  C_45
REMARK   52  A    between atoms: C_43  and  C_163
REMARK   53  A    between atoms: O_44  and  C_116
REMARK   54  A    between atoms: O_44  and  C_117
REMARK   55  A    between atoms: C_45  and  C_47
REMARK   56  A    between atoms: C_45  and  C_150
REMARK   57  A    between atoms: O_46  and  C_118
REMARK   58  A    between atoms: O_46  and  C_119
REMARK   59  A    between atoms: O_48  and  C_120
REMARK   60  A    between atoms: O_48  and  C_121
REMARK   61  A    between atoms: O_50  and  C_122
REMARK   62  A    between atoms: O_50  and  C_123
REMARK   63  A    between atoms: C_51  and  C_53
REMARK   64  A    between atoms: O_52  and  C_124
REMARK   65  A    between atoms: O_52  and  C_125
REMARK   66  A    between atoms: O_54  and  C_126
REMARK   67  A    between atoms: O_54  and  C_127
REMARK   68  A    between atoms: C_55  and  C_57
REMARK   69  A    between atoms: O_56  and  C_128
REMARK   70  A    between atoms: O_56  and  C_129
REMARK   71  A    between atoms: O_58  and  C_130
REMARK   72  A    between atoms: O_58  and  C_131
REMARK   73  A    between atoms: C_59  and  C_61
REMARK   74  A    between atoms: O_60  and  C_132
REMARK   75  A    between atoms: O_60  and  C_133
REMARK   76  A    between atoms: O_62  and  C_134
REMARK   77  A    between atoms: O_62  and  C_135
REMARK   78  A    between atoms: C_63  and  C_65
REMARK   79  A    between atoms: O_66  and  C_180
REMARK   80  A    between atoms: O_66  and  C_181
REMARK   81  A    between atoms: C_67  and  C_69
REMARK   82  A    between atoms: O_68  and  C_182
REMARK   83  A    between atoms: O_68  and  C_183
REMARK   84  A    between atoms: O_70  and  C_184
REMARK   85  A    between atoms: O_70  and  C_185
REMARK   86  A    between atoms: C_71  and  C_73
REMARK   87  A    between atoms: O_72  and  C_186
REMARK   88  A    between atoms: O_72  and  C_187
REMARK   89  A    between atoms: O_74  and  C_188
REMARK   90  A    between atoms: O_74  and  C_189
REMARK   91  A    between atoms: C_75  and  C_77
REMARK   92  A    between atoms: O_76  and  C_190
REMARK   93  A    between atoms: O_76  and  C_191
REMARK   94  A    between atoms: O_78  and  C_192
REMARK   95  A    between atoms: O_78  and  C_193
REMARK   96  A    between atoms: C_79  and  C_81
REMARK   97  A    between atoms: O_80  and  C_194
REMARK   98  A    between atoms: O_80  and  C_195
REMARK   99  A    between atoms: O_82  and  C_196
REMARK  100  A    between atoms: O_82  and  C_197
REMARK  101  A    between atoms: C_83  and  C_85
REMARK  102  A    between atoms: O_84  and  C_198
REMARK  103  A    between atoms: O_84  and  C_199
REMARK  104  A    between atoms: C_87  and  C_89
REMARK  105  A    between atoms: O_88  and  C_215
REMARK  106  A    between atoms: O_88  and  C_216
REMARK  107  A    between atoms: O_90  and  C_217
REMARK  108  A    between atoms: O_90  and  C_218
REMARK  109  A    between atoms: O_92  and  C_219
REMARK  110  A    between atoms: O_92  and  C_220
REMARK  111  A    between atoms: O_94  and  C_221
REMARK  112  A    between atoms: O_94  and  C_222
REMARK  113  A    between atoms: O_96  and  C_223
REMARK  114  A    between atoms: O_96  and  C_224
REMARK  115  A    between atoms: C_97  and  C_99
REMARK  116  A    between atoms: O_98  and  C_225
REMARK  117  A    between atoms: O_98  and  C_226
REMARK  118  A    between atoms: C_99  and  C_105
REMARK  119  A    between atoms: O_100  and  C_227
REMARK  120  A    between atoms: O_100  and  C_228
REMARK  121  A    between atoms: O_102  and  C_229
REMARK  122  A    between atoms: O_102  and  C_230
REMARK  123  A    between atoms: O_104  and  C_231
REMARK  124  A    between atoms: O_104  and  C_232
REMARK  125  A    between atoms: C_105  and  C_107
REMARK  126  A    between atoms: O_106  and  C_233
REMARK  127  A    between atoms: O_106  and  C_234
REMARK  128  A    between atoms: C_117  and  C_118
REMARK  129  A    between atoms: C_119  and  C_120
REMARK  130  A    between atoms: C_121  and  C_122
REMARK  131  A    between atoms: C_123  and  C_124
REMARK  132  A    between atoms: C_125  and  C_126
REMARK  133  A    between atoms: C_127  and  C_128
REMARK  134  A    between atoms: C_129  and  C_130
REMARK  135  A    between atoms: C_131  and  C_132
REMARK  136  A    between atoms: C_133  and  C_134
REMARK  137  A    between atoms: C_135  and  C_136
REMARK  138  A    between atoms: C_138  and  C_139
REMARK  139  A    between atoms: C_139  and  C_142
REMARK  140  A    between atoms: C_142  and  C_145
REMARK  141  A    between atoms: C_150  and  C_151
REMARK  142  A    between atoms: C_151  and  C_152
REMARK  143  A    between atoms: C_152  and  C_155
REMARK  144  A    between atoms: C_155  and  C_158
REMARK  145  A    between atoms: C_163  and  C_164
REMARK  146  A    between atoms: C_166  and  C_167
REMARK  147  A    between atoms: C_167  and  C_168
REMARK  148  A    between atoms: C_168  and  C_171
REMARK  149  A    between atoms: C_178  and  C_179
REMARK  150  A    between atoms: C_179  and  C_180
REMARK  151  A    between atoms: C_179  and  C_214
REMARK  152  A    between atoms: C_181  and  C_182
REMARK  153  A    between atoms: C_183  and  C_184
REMARK  154  A    between atoms: C_185  and  C_186
REMARK  155  A    between atoms: C_187  and  C_188
REMARK  156  A    between atoms: C_189  and  C_190
REMARK  157  A    between atoms: C_191  and  C_192
REMARK  158  A    between atoms: C_193  and  C_194
REMARK  159  A    between atoms: C_195  and  C_196
REMARK  160  A    between atoms: C_197  and  C_198
REMARK  161  A    between atoms: C_199  and  C_200
REMARK  162  A    between atoms: C_203  and  C_204
REMARK  163  A    between atoms: C_203  and  C_214
REMARK  164  A    between atoms: C_204  and  C_207
REMARK  165  A    between atoms: C_207  and  C_210
REMARK  166  A    between atoms: C_216  and  C_217
REMARK  167  A    between atoms: C_218  and  C_219
REMARK  168  A    between atoms: C_220  and  C_221
REMARK  169  A    between atoms: C_222  and  C_223
REMARK  170  A    between atoms: C_224  and  C_225
REMARK  171  A    between atoms: C_226  and  C_227
REMARK  172  A    between atoms: C_228  and  C_229
REMARK  173  A    between atoms: C_230  and  C_231
REMARK  174  A    between atoms: C_232  and  C_233
REMARK  175  A    between atoms: C_234  and  C_235
REMARK                            x       y       z     vdW  Elec       q    Type
REMARK                         _______ _______ _______ _____ _____    ______ ____
ROOT
ATOM      1  C   UNL     1     -13.020  11.518  28.825  0.00  0.00    +0.000 C 
ENDROOT
BRANCH   1   2
ATOM      2  C   UNL     1     -13.185  10.457  27.190  0.00  0.00    +0.000 C 
BRANCH   2   3
ATOM      3  C   UNL     1     -12.825   8.936  27.220  0.00  0.00    +0.000 C 
ATOM      4  C   UNL     1     -11.756   8.575  28.431  0.00  0.00    +0.000 C 
ATOM      5  C   UNL     1     -10.317   8.555  27.934  0.00  0.00    +0.000 C 
ATOM      6  C   UNL     1     -10.175   7.208  26.832  0.00  0.00    +0.000 C 
ATOM      7  C   UNL     1     -10.652   7.334  25.443  0.00  0.00    +0.000 C 
ATOM      8  C   UNL     1     -12.257   8.067  25.458  0.00  0.00    +0.000 C 
BRANCH   5   9
ATOM      9  C   UNL     1      -9.255   8.488  29.163  0.00  0.00    +0.000 C 
ATOM     10  C   UNL     1      -9.845   8.696  30.207  0.00  0.00    +0.000 C 
ATOM     11  C   UNL     1      -8.470   7.115  28.987  0.00  0.00    +0.000 C 
BRANCH   9  12
ATOM     12  C   UNL     1      -8.041   9.587  29.018  0.00  0.00    +0.000 C 
ATOM     13  C   UNL     1      -7.164   9.286  27.776  0.00  0.00    +0.000 C 
ATOM     14  C   UNL     1      -6.827   9.305  30.183  0.00  0.00    +0.000 C 
BRANCH  12  15
ATOM     15  C   UNL     1      -8.291  11.043  29.257  0.00  0.00    +0.000 C 
ATOM     16  C   UNL     1      -7.233  11.600  28.316  0.00  0.00    +0.000 C 
ATOM     17  C   UNL     1      -7.967  11.573  30.596  0.00  0.00    +0.000 C 
ATOM     18  C   UNL     1      -9.659  11.460  28.919  0.00  0.00    +0.000 C 
ENDBRANCH  12  15
ENDBRANCH   9  12
ENDBRANCH   5   9
BRANCH   7  19
ATOM     19  C   UNL     1     -10.144   6.234  24.417  0.00  0.00    +0.000 C 
BRANCH  19  20
ATOM     20  C   UNL     1     -10.663   6.456  22.951  0.00  0.00    +0.000 C 
ATOM     21  C   UNL     1      -9.704   7.384  22.103  0.00  0.00    +0.000 C 
BRANCH  20  22
ATOM     22  O   UNL     1     -10.617   5.172  22.229  0.00  0.00    +0.000 OA
BRANCH  22  23
ATOM     23  C   UNL     1     -10.652   5.267  20.831  0.00  0.00    +0.000 C 
BRANCH  23  24
ATOM     24  C   UNL     1     -11.982   4.754  20.297  0.00  0.00    +0.000 C 
BRANCH  24  25
ATOM     25  O   UNL     1     -11.966   4.816  18.908  0.00  0.00    +0.000 OA
BRANCH  25  26
ATOM     26  C   UNL     1     -10.894   4.085  18.333  0.00  0.00    +0.000 C 
BRANCH  26  27
ATOM     27  C   UNL     1     -11.040   4.001  16.875  0.00  0.00    +0.000 C 
BRANCH  27  28
ATOM     28  O   UNL     1      -9.818   3.700  16.309  0.00  0.00    +0.000 OA
BRANCH  28  29
ATOM     29  C   UNL     1      -9.843   3.527  14.907  0.00  0.00    +0.000 C 
BRANCH  29  30
ATOM     30  C   UNL     1     -10.878   2.483  14.558  0.00  0.00    +0.000 C 
BRANCH  30  31
ATOM     31  O   UNL     1     -11.786   3.060  13.671  0.00  0.00    +0.000 OA
BRANCH  31  32
ATOM     32  C   UNL     1     -12.180   2.124  12.651  0.00  0.00    +0.000 C 
BRANCH  32  33
ATOM     33  C   UNL     1     -13.716   2.121  12.586  0.00  0.00    +0.000 C 
BRANCH  33  34
ATOM     34  O   UNL     1     -14.103   2.641  11.356  0.00  0.00    +0.000 OA
BRANCH  34  35
ATOM     35  C   UNL     1     -15.524   2.838  11.219  0.00  0.00    +0.000 C 
BRANCH  35  36
ATOM     36  C   UNL     1     -15.874   4.271  10.951  0.00  0.00    +0.000 C 
BRANCH  36  37
ATOM     37  O   UNL     1     -16.269   4.852  12.229  0.00  0.00    +0.000 OA
BRANCH  37  38
ATOM     38  C   UNL     1     -16.959   3.908  13.008  0.00  0.00    +0.000 C 
BRANCH  38  39
ATOM     39  C   UNL     1     -18.419   4.121  13.049  0.00  0.00    +0.000 C 
BRANCH  39  40
ATOM     40  O   UNL     1     -18.973   3.282  14.168  0.00  0.00    +0.000 OA
BRANCH  40  41
ATOM     41  C   UNL     1     -20.056   2.486  13.750  0.00  0.00    +0.000 C 
BRANCH  41  42
ATOM     42  C   UNL     1     -20.923   2.097  14.895  0.00  0.00    +0.000 C 
BRANCH  42  43
ATOM     43  O   UNL     1     -22.107   2.792  14.877  0.00  0.00    +0.000 OA
BRANCH  43  44
ATOM     44  C   UNL     1     -23.247   2.067  14.518  0.00  0.00    +0.000 C 
BRANCH  44  45
ATOM     45  C   UNL     1     -23.624   2.283  13.096  0.00  0.00    +0.000 C 
BRANCH  45  46
ATOM     46  O   UNL     1     -23.323   1.081  12.382  0.00  0.00    +0.000 OA
BRANCH  46  47
ATOM     47  C   UNL     1     -24.456   0.230  12.394  0.00  0.00    +0.000 C 
BRANCH  47  48
ATOM     48  C   UNL     1     -24.875  -0.051  10.890  0.00  0.00    +0.000 C 
BRANCH  48  49
ATOM     49  O   UNL     1     -25.875   0.832  10.519  0.00  0.00    +0.000 OA
BRANCH  49  50
ATOM     50  C   UNL     1     -26.760   1.202  11.523  0.00  0.00    +0.000 C 
BRANCH  50  52
ATOM     51  O   UNL     1     -28.206  -0.244  10.296  0.00  0.00    +0.000 OA
ATOM     52  C   UNL     1     -28.209   0.992  11.037  0.00  0.00    +0.000 C 
ENDBRANCH  50  52
ENDBRANCH  49  50
ENDBRANCH  48  49
ENDBRANCH  47  48
ENDBRANCH  46  47
ENDBRANCH  45  46
ENDBRANCH  44  45
ENDBRANCH  43  44
ENDBRANCH  42  43
ENDBRANCH  41  42
ENDBRANCH  40  41
ENDBRANCH  39  40
ENDBRANCH  38  39
ENDBRANCH  37  38
ENDBRANCH  36  37
ENDBRANCH  35  36
ENDBRANCH  34  35
ENDBRANCH  33  34
ENDBRANCH  32  33
ENDBRANCH  31  32
ENDBRANCH  30  31
ENDBRANCH  29  30
ENDBRANCH  28  29
ENDBRANCH  27  28
ENDBRANCH  26  27
ENDBRANCH  25  26
ENDBRANCH  24  25
ENDBRANCH  23  24
ENDBRANCH  22  23
ENDBRANCH  20  22
ENDBRANCH  19  20
BRANCH  19  53
ATOM     53  C   UNL     1      -8.546   6.048  24.261  0.00  0.00    +0.000 C 
BRANCH  53  55
ATOM     54  C   UNL     1      -8.298   3.699  24.035  0.00  0.00    +0.000 C 
ATOM     55  C   UNL     1      -7.806   5.067  23.726  0.00  0.00    +0.000 C 
BRANCH  55  56
ATOM     56  C   UNL     1      -6.557   5.268  22.871  0.00  0.00    +0.000 C 
ATOM     57  C   UNL     1      -6.981   4.746  21.540  0.00  0.00    +0.000 C 
ATOM     58  C   UNL     1      -6.295   6.739  22.718  0.00  0.00    +0.000 C 
BRANCH  56  59
ATOM     59  C   UNL     1      -5.327   4.518  23.465  0.00  0.00    +0.000 C 
ATOM     60  C   UNL     1      -5.541   3.057  23.548  0.00  0.00    +0.000 C 
ATOM     61  C   UNL     1      -5.085   5.082  24.885  0.00  0.00    +0.000 C 
BRANCH  59  62
ATOM     62  C   UNL     1      -3.967   4.757  22.662  0.00  0.00    +0.000 C 
ATOM     63  C   UNL     1      -2.999   3.656  22.915  0.00  0.00    +0.000 C 
ATOM     64  C   UNL     1      -3.297   6.013  23.164  0.00  0.00    +0.000 C 
ATOM     65  C   UNL     1      -4.148   4.967  21.237  0.00  0.00    +0.000 C 
ENDBRANCH  59  62
ENDBRANCH  56  59
ENDBRANCH  55  56
ENDBRANCH  53  55
ENDBRANCH  19  53
ENDBRANCH   7  19
BRANCH   8  66
ATOM     66  O   UNL     1     -13.151   8.115  24.427  0.00  0.00    +0.000 OA
BRANCH  66  67
ATOM     67  C   UNL     1     -12.849   9.023  23.394  0.00  0.00    +0.000 C 
BRANCH  67  68
ATOM     68  C   UNL     1     -13.244   8.613  21.958  0.00  0.00    +0.000 C 
BRANCH  68  69
ATOM     69  O   UNL     1     -13.821   7.337  21.995  0.00  0.00    +0.000 OA
BRANCH  69  70
ATOM     70  C   UNL     1     -14.857   7.155  20.975  0.00  0.00    +0.000 C 
BRANCH  70  71
ATOM     71  C   UNL     1     -14.350   7.571  19.605  0.00  0.00    +0.000 C 
BRANCH  71  72
ATOM     72  O   UNL     1     -15.159   6.826  18.527  0.00  0.00    +0.000 OA
BRANCH  72  73
ATOM     73  C   UNL     1     -15.801   5.682  19.074  0.00  0.00    +0.000 C 
BRANCH  73  74
ATOM     74  C   UNL     1     -15.398   4.449  18.255  0.00  0.00    +0.000 C 
BRANCH  74  75
ATOM     75  O   UNL     1     -14.677   4.814  17.121  0.00  0.00    +0.000 OA
BRANCH  75  76
ATOM     76  C   UNL     1     -14.464   3.726  16.212  0.00  0.00    +0.000 C 
BRANCH  76  77
ATOM     77  C   UNL     1     -14.121   2.450  16.934  0.00  0.00    +0.000 C 
BRANCH  77  78
ATOM     78  O   UNL     1     -13.790   1.527  15.907  0.00  0.00    +0.000 OA
BRANCH  78  79
ATOM     79  C   UNL     1     -13.624   0.151  16.389  0.00  0.00    +0.000 C 
BRANCH  79  80
ATOM     80  C   UNL     1     -12.831  -0.564  15.364  0.00  0.00    +0.000 C 
BRANCH  80  81
ATOM     81  O   UNL     1     -13.627  -0.946  14.211  0.00  0.00    +0.000 OA
BRANCH  81  82
ATOM     82  C   UNL     1     -12.897  -1.579  13.210  0.00  0.00    +0.000 C 
BRANCH  82  83
ATOM     83  C   UNL     1     -13.658  -1.522  11.870  0.00  0.00    +0.000 C 
BRANCH  83  84
ATOM     84  O   UNL     1     -15.023  -1.260  12.091  0.00  0.00    +0.000 OA
BRANCH  84  85
ATOM     85  C   UNL     1     -15.760  -0.866  11.045  0.00  0.00    +0.000 C 
BRANCH  85  86
ATOM     86  C   UNL     1     -14.915  -0.863   9.754  0.00  0.00    +0.000 C 
BRANCH  86  87
ATOM     87  O   UNL     1     -15.237   0.192   8.886  0.00  0.00    +0.000 OA
BRANCH  87  88
ATOM     88  C   UNL     1     -14.147   0.761   8.251  0.00  0.00    +0.000 C 
BRANCH  88  89
ATOM     89  C   UNL     1     -14.529   2.052   7.547  0.00  0.00    +0.000 C 
BRANCH  89  90
ATOM     90  O   UNL     1     -13.455   2.475   6.715  0.00  0.00    +0.000 OA
BRANCH  90  91
ATOM     91  C   UNL     1     -13.413   3.917   6.705  0.00  0.00    +0.000 C 
BRANCH  91  92
ATOM     92  C   UNL     1     -14.659   4.414   7.392  0.00  0.00    +0.000 C 
BRANCH  92  93
ATOM     93  O   UNL     1     -15.179   5.511   6.644  0.00  0.00    +0.000 OA
BRANCH  93  94
ATOM     94  C   UNL     1     -15.821   6.448   7.419  0.00  0.00    +0.000 C 
BRANCH  94  96
ATOM     95  O   UNL     1     -18.123   7.100   7.194  0.00  0.00    +0.000 OA
ATOM     96  C   UNL     1     -17.289   6.061   7.632  0.00  0.00    +0.000 C 
ENDBRANCH  94  96
ENDBRANCH  93  94
ENDBRANCH  92  93
ENDBRANCH  91  92
ENDBRANCH  90  91
ENDBRANCH  89  90
ENDBRANCH  88  89
ENDBRANCH  87  88
ENDBRANCH  86  87
ENDBRANCH  85  86
ENDBRANCH  84  85
ENDBRANCH  83  84
ENDBRANCH  82  83
ENDBRANCH  81  82
ENDBRANCH  80  81
ENDBRANCH  79  80
ENDBRANCH  78  79
ENDBRANCH  77  78
ENDBRANCH  76  77
ENDBRANCH  75  76
ENDBRANCH  74  75
ENDBRANCH  73  74
ENDBRANCH  72  73
ENDBRANCH  71  72
ENDBRANCH  70  71
ENDBRANCH  69  70
ENDBRANCH  68  69
ENDBRANCH  67  68
ENDBRANCH  66  67
ENDBRANCH   8  66
ENDBRANCH   2   3
ENDBRANCH   1   2
BRANCH   1  97
ATOM     97  C   UNL     1     -13.984  11.542  29.997  0.00  0.00    +0.000 C 
BRANCH  97  98
ATOM     98  C   UNL     1     -14.976  10.264  30.001  0.00  0.00    +0.000 C 
ATOM     99  C   UNL     1     -16.270  10.518  29.171  0.00  0.00    +0.000 C 
ATOM    100  C   UNL     1     -17.324   9.326  29.109  0.00  0.00    +0.000 C 
ATOM    101  C   UNL     1     -18.581   8.676  28.726  0.00  0.00    +0.000 C 
ATOM    102  C   UNL     1     -19.402   7.738  29.578  0.00  0.00    +0.000 C 
ATOM    103  C   UNL     1     -20.660   7.194  29.114  0.00  0.00    +0.000 C 
ATOM    104  C   UNL     1     -21.118   7.651  27.829  0.00  0.00    +0.000 C 
ATOM    105  C   UNL     1     -20.366   8.445  26.971  0.00  0.00    +0.000 C 
ATOM    106  C   UNL     1     -19.172   8.850  27.486  0.00  0.00    +0.000 C 
ATOM    107  C   UNL     1     -17.187   8.824  29.769  0.00  0.00    +0.000 C 
ATOM    108  C   UNL     1     -16.164   8.307  30.485  0.00  0.00    +0.000 C 
ATOM    109  C   UNL     1     -14.754   8.902  30.363  0.00  0.00    +0.000 C 
BRANCH 103 110
ATOM    110  C   UNL     1     -21.394   6.169  29.973  0.00  0.00    +0.000 C 
ATOM    111  C   UNL     1     -22.409   5.515  28.991  0.00  0.00    +0.000 C 
ATOM    112  C   UNL     1     -20.477   5.096  30.338  0.00  0.00    +0.000 C 
BRANCH 110 113
ATOM    113  C   UNL     1     -22.174   6.591  31.239  0.00  0.00    +0.000 C 
ATOM    114  C   UNL     1     -23.054   5.436  31.597  0.00  0.00    +0.000 C 
ATOM    115  C   UNL     1     -21.178   6.884  32.365  0.00  0.00    +0.000 C 
BRANCH 113 116
ATOM    116  C   UNL     1     -23.038   7.923  31.085  0.00  0.00    +0.000 C 
ATOM    117  C   UNL     1     -23.816   7.920  29.785  0.00  0.00    +0.000 C 
ATOM    118  C   UNL     1     -22.150   9.110  30.971  0.00  0.00    +0.000 C 
ATOM    119  C   UNL     1     -23.948   8.115  32.266  0.00  0.00    +0.000 C 
ENDBRANCH 113 116
ENDBRANCH 110 113
ENDBRANCH 103 110
BRANCH 108 120
ATOM    120  C   UNL     1     -16.529   7.552  31.817  0.00  0.00    +0.000 C 
ATOM    121  C   UNL     1     -15.206   7.027  32.400  0.00  0.00    +0.000 C 
ATOM    122  C   UNL     1     -17.295   6.339  31.431  0.00  0.00    +0.000 C 
BRANCH 120 123
ATOM    123  C   UNL     1     -17.161   8.426  33.037  0.00  0.00    +0.000 C 
ATOM    124  C   UNL     1     -16.240   9.427  33.580  0.00  0.00    +0.000 C 
ATOM    125  C   UNL     1     -18.360   9.209  32.565  0.00  0.00    +0.000 C 
BRANCH 123 126
ATOM    126  C   UNL     1     -17.570   7.585  34.296  0.00  0.00    +0.000 C 
ATOM    127  C   UNL     1     -18.651   8.316  35.012  0.00  0.00    +0.000 C 
ATOM    128  C   UNL     1     -16.430   7.488  35.273  0.00  0.00    +0.000 C 
ATOM    129  C   UNL     1     -17.921   6.199  33.908  0.00  0.00    +0.000 C 
ENDBRANCH 123 126
ENDBRANCH 120 123
ENDBRANCH 108 120
BRANCH 106 130
ATOM    130  O   UNL     1     -18.274   9.452  26.636  0.00  0.00    +0.000 OA
BRANCH 130 131
ATOM    131  C   UNL     1     -17.534   8.642  25.691  0.00  0.00    +0.000 C 
BRANCH 131 132
ATOM    132  C   UNL     1     -16.359   9.473  25.212  0.00  0.00    +0.000 C 
BRANCH 132 133
ATOM    133  O   UNL     1     -16.201   9.334  23.843  0.00  0.00    +0.000 OA
BRANCH 133 134
ATOM    134  C   UNL     1     -16.122  10.574  23.159  0.00  0.00    +0.000 C 
BRANCH 134 135
ATOM    135  C   UNL     1     -16.433  10.372  21.717  0.00  0.00    +0.000 C 
BRANCH 135 136
ATOM    136  O   UNL     1     -17.392   9.744  21.708  0.00  0.00    +0.000 OA
BRANCH 136 137
ATOM    137  C   UNL     1     -18.169   9.956  20.582  0.00  0.00    +0.000 C 
BRANCH 137 138
ATOM    138  C   UNL     1     -17.578   9.301  19.287  0.00  0.00    +0.000 C 
BRANCH 138 139
ATOM    139  O   UNL     1     -18.499   9.439  18.306  0.00  0.00    +0.000 OA
BRANCH 139 140
ATOM    140  C   UNL     1     -19.509   8.407  18.340  0.00  0.00    +0.000 C 
BRANCH 140 141
ATOM    141  C   UNL     1     -20.824   8.993  17.932  0.00  0.00    +0.000 C 
BRANCH 141 142
ATOM    142  O   UNL     1     -21.867   8.102  18.260  0.00  0.00    +0.000 OA
BRANCH 142 143
ATOM    143  C   UNL     1     -22.956   8.145  17.341  0.00  0.00    +0.000 C 
BRANCH 143 144
ATOM    144  C   UNL     1     -24.245   7.628  18.032  0.00  0.00    +0.000 C 
BRANCH 144 145
ATOM    145  O   UNL     1     -25.422   8.254  17.496  0.00  0.00    +0.000 OA
BRANCH 145 146
ATOM    146  C   UNL     1     -26.330   8.905  18.396  0.00  0.00    +0.000 C 
BRANCH 146 147
ATOM    147  C   UNL     1     -25.812   8.935  19.812  0.00  0.00    +0.000 C 
BRANCH 147 148
ATOM    148  O   UNL     1     -26.894   8.562  20.685  0.00  0.00    +0.000 OA
BRANCH 148 149
ATOM    149  C   UNL     1     -27.282   9.549  21.626  0.00  0.00    +0.000 C 
BRANCH 149 150
ATOM    150  C   UNL     1     -26.228  10.634  21.693  0.00  0.00    +0.000 C 
BRANCH 150 151
ATOM    151  O   UNL     1     -25.728  10.696  23.036  0.00  0.00    +0.000 OA
BRANCH 151 152
ATOM    152  C   UNL     1     -26.126  11.787  23.790  0.00  0.00    +0.000 C 
BRANCH 152 153
ATOM    153  C   UNL     1     -24.985  12.764  24.003  0.00  0.00    +0.000 C 
BRANCH 153 154
ATOM    154  O   UNL     1     -24.923  13.126  25.381  0.00  0.00    +0.000 OA
BRANCH 154 155
ATOM    155  C   UNL     1     -26.170  13.369  25.967  0.00  0.00    +0.000 C 
BRANCH 155 156
ATOM    156  C   UNL     1     -26.181  12.866  27.433  0.00  0.00    +0.000 C 
BRANCH 156 157
ATOM    157  O   UNL     1     -25.343  11.707  27.488  0.00  0.00    +0.000 OA
BRANCH 157 158
ATOM    158  C   UNL     1     -25.893  10.671  28.259  0.00  0.00    +0.000 C 
BRANCH 158 160
ATOM    159  O   UNL     1     -25.094  11.128  30.555  0.00  0.00    +0.000 OA
ATOM    160  C   UNL     1     -26.233  11.292  29.542  0.00  0.00    +0.000 C 
ENDBRANCH 158 160
ENDBRANCH 157 158
ENDBRANCH 156 157
ENDBRANCH 155 156
ENDBRANCH 154 155
ENDBRANCH 153 154
ENDBRANCH 152 153
ENDBRANCH 151 152
ENDBRANCH 150 151
ENDBRANCH 149 150
ENDBRANCH 148 149
ENDBRANCH 147 148
ENDBRANCH 146 147
ENDBRANCH 145 146
ENDBRANCH 144 145
ENDBRANCH 143 144
ENDBRANCH 142 143
ENDBRANCH 141 142
ENDBRANCH 140 141
ENDBRANCH 139 140
ENDBRANCH 138 139
ENDBRANCH 137 138
ENDBRANCH 136 137
ENDBRANCH 135 136
ENDBRANCH 134 135
ENDBRANCH 133 134
ENDBRANCH 132 133
ENDBRANCH 131 132
ENDBRANCH 130 131
ENDBRANCH 106 130
BRANCH  99 161
ATOM    161  O   UNL     1     -16.862  11.757  29.185  0.00  0.00    +0.000 OA
BRANCH 161 162
ATOM    162  C   UNL     1     -17.537  12.204  30.366  0.00  0.00    +0.000 C 
BRANCH 162 163
ATOM    163  C   UNL     1     -18.973  12.663  30.170  0.00  0.00    +0.000 C 
BRANCH 163 164
ATOM    164  O   UNL     1     -19.017  14.035  29.920  0.00  0.00    +0.000 OA
BRANCH 164 165
ATOM    165  C   UNL     1     -19.468  14.400  28.643  0.00  0.00    +0.000 C 
BRANCH 165 166
ATOM    166  C   UNL     1     -18.329  14.768  27.688  0.00  0.00    +0.000 C 
BRANCH 166 167
ATOM    167  O   UNL     1     -18.634  14.249  26.369  0.00  0.00    +0.000 OA
BRANCH 167 168
ATOM    168  C   UNL     1     -18.761  12.843  26.398  0.00  0.00    +0.000 C 
BRANCH 168 169
ATOM    169  C   UNL     1     -19.803  12.371  25.395  0.00  0.00    +0.000 C 
BRANCH 169 170
ATOM    170  O   UNL     1     -19.207  11.570  24.422  0.00  0.00    +0.000 OA
BRANCH 170 171
ATOM    171  C   UNL     1     -20.116  10.709  23.764  0.00  0.00    +0.000 C 
BRANCH 171 172
ATOM    172  C   UNL     1     -21.588  11.212  23.907  0.00  0.00    +0.000 C 
BRANCH 172 173
ATOM    173  O   UNL     1     -22.422  10.261  23.266  0.00  0.00    +0.000 OA
BRANCH 173 174
ATOM    174  C   UNL     1     -22.681   9.136  24.162  0.00  0.00    +0.000 C 
BRANCH 174 175
ATOM    175  C   UNL     1     -23.412   9.636  25.406  0.00  0.00    +0.000 C 
BRANCH 175 176
ATOM    176  O   UNL     1     -24.107   8.564  25.956  0.00  0.00    +0.000 OA
BRANCH 176 177
ATOM    177  C   UNL     1     -23.733   7.324  25.379  0.00  0.00    +0.000 C 
BRANCH 177 178
ATOM    178  C   UNL     1     -24.869   6.348  25.658  0.00  0.00    +0.000 C 
BRANCH 178 179
ATOM    179  O   UNL     1     -25.159   5.608  24.485  0.00  0.00    +0.000 OA
BRANCH 179 180
ATOM    180  C   UNL     1     -25.488   6.453  23.350  0.00  0.00    +0.000 C 
BRANCH 180 181
ATOM    181  C   UNL     1     -25.510   5.616  22.071  0.00  0.00    +0.000 C 
BRANCH 181 182
ATOM    182  O   UNL     1     -24.993   4.337  22.314  0.00  0.00    +0.000 OA
BRANCH 182 183
ATOM    183  C   UNL     1     -25.566   3.320  21.420  0.00  0.00    +0.000 C 
BRANCH 183 184
ATOM    184  C   UNL     1     -24.530   2.363  20.831  0.00  0.00    +0.000 C 
BRANCH 184 185
ATOM    185  O   UNL     1     -23.310   2.690  21.414  0.00  0.00    +0.000 OA
BRANCH 185 186
ATOM    186  C   UNL     1     -22.417   1.566  21.503  0.00  0.00    +0.000 C 
BRANCH 186 187
ATOM    187  C   UNL     1     -23.194   0.269  21.504  0.00  0.00    +0.000 C 
BRANCH 187 188
ATOM    188  O   UNL     1     -23.011  -0.308  22.864  0.00  0.00    +0.000 OA
BRANCH 188 189
ATOM    189  C   UNL     1     -23.760  -1.535  22.984  0.00  0.00    +0.000 C 
BRANCH 189 191
ATOM    190  O   UNL     1     -22.995  -2.999  24.680  0.00  0.00    +0.000 OA
ATOM    191  C   UNL     1     -22.777  -2.620  23.362  0.00  0.00    +0.000 C 
ENDBRANCH 189 191
ENDBRANCH 188 189
ENDBRANCH 187 188
ENDBRANCH 186 187
ENDBRANCH 185 186
ENDBRANCH 184 185
ENDBRANCH 183 184
ENDBRANCH 182 183
ENDBRANCH 181 182
ENDBRANCH 180 181
ENDBRANCH 179 180
ENDBRANCH 178 179
ENDBRANCH 177 178
ENDBRANCH 176 177
ENDBRANCH 175 176
ENDBRANCH 174 175
ENDBRANCH 173 174
ENDBRANCH 172 173
ENDBRANCH 171 172
ENDBRANCH 170 171
ENDBRANCH 169 170
ENDBRANCH 168 169
ENDBRANCH 167 168
ENDBRANCH 166 167
ENDBRANCH 165 166
ENDBRANCH 164 165
ENDBRANCH 163 164
ENDBRANCH 162 163
ENDBRANCH 161 162
ENDBRANCH  99 161
ENDBRANCH  97  98
BRANCH  97 192
ATOM    192  C   UNL     1     -13.070  12.119  30.931  0.00  0.00    +0.000 C 
BRANCH 192 193
ATOM    193  C   UNL     1     -13.250  12.244  32.356  0.00  0.00    +0.000 C 
ATOM    194  C   UNL     1     -14.542  12.569  32.939  0.00  0.00    +0.000 C 
BRANCH 193 195
ATOM    195  C   UNL     1     -12.131  12.072  33.302  0.00  0.00    +0.000 C 
ATOM    196  C   UNL     1     -10.849  12.443  32.538  0.00  0.00    +0.000 C 
ATOM    197  C   UNL     1     -12.236  13.048  34.480  0.00  0.00    +0.000 C 
BRANCH 195 198
ATOM    198  C   UNL     1     -12.072  10.547  33.834  0.00  0.00    +0.000 C 
ATOM    199  C   UNL     1     -12.409   9.589  32.777  0.00  0.00    +0.000 C 
ATOM    200  C   UNL     1     -12.996  10.363  34.993  0.00  0.00    +0.000 C 
BRANCH 198 201
ATOM    201  C   UNL     1     -10.709  10.009  34.411  0.00  0.00    +0.000 C 
ATOM    202  C   UNL     1     -10.623   8.513  34.423  0.00  0.00    +0.000 C 
ATOM    203  C   UNL     1     -10.484  10.426  35.840  0.00  0.00    +0.000 C 
ATOM    204  C   UNL     1      -9.606  10.427  33.559  0.00  0.00    +0.000 C 
ENDBRANCH 198 201
ENDBRANCH 195 198
ENDBRANCH 193 195
ENDBRANCH 192 193
ENDBRANCH  97 192
ENDBRANCH   1  97
BRANCH   1 205
ATOM    205  O   UNL     1     -12.982  12.762  28.157  0.00  0.00    +0.000 OA
BRANCH 205 206
ATOM    206  C   UNL     1     -14.247  13.368  28.021  0.00  0.00    +0.000 C 
BRANCH 206 207
ATOM    207  C   UNL     1     -14.255  14.404  26.934  0.00  0.00    +0.000 C 
BRANCH 207 208
ATOM    208  O   UNL     1     -14.148  13.801  25.639  0.00  0.00    +0.000 OA
BRANCH 208 209
ATOM    209  C   UNL     1     -15.414  13.691  24.953  0.00  0.00    +0.000 C 
BRANCH 209 210
ATOM    210  C   UNL     1     -15.801  15.013  24.338  0.00  0.00    +0.000 C 
BRANCH 210 211
ATOM    211  C   UNL     1     -16.257  14.891  22.884  0.00  0.00    +0.000 C 
BRANCH 211 212
ATOM    212  C   UNL     1     -17.520  14.065  22.772  0.00  0.00    +0.000 C 
BRANCH 212 213
ATOM    213  C   UNL     1     -18.734  14.930  22.850  0.00  0.00    +0.000 C 
BRANCH 213 214
ATOM    214  O   UNL     1     -19.841  14.287  22.414  0.00  0.00    +0.000 OA
BRANCH 214 215
ATOM    215  C   UNL     1     -19.552  13.381  21.313  0.00  0.00    +0.000 C 
BRANCH 215 216
ATOM    216  C   UNL     1     -20.697  13.282  20.328  0.00  0.00    +0.000 C 
BRANCH 216 217
ATOM    217  O   UNL     1     -21.885  13.300  20.984  0.00  0.00    +0.000 OA
BRANCH 217 218
ATOM    218  C   UNL     1     -23.202  12.641  20.743  0.00  0.00    +0.000 C 
BRANCH 218 219
ATOM    219  C   UNL     1     -22.878  11.374  19.882  0.00  0.00    +0.000 C 
BRANCH 219 220
ATOM    220  O   UNL     1     -23.546  11.420  18.678  0.00  0.00    +0.000 OA
BRANCH 220 221
ATOM    221  C   UNL     1     -24.596  12.397  18.566  0.00  0.00    +0.000 C 
BRANCH 221 222
ATOM    222  C   UNL     1     -25.213  12.308  17.172  0.00  0.00    +0.000 C 
BRANCH 222 223
ATOM    223  O   UNL     1     -24.598  11.311  16.397  0.00  0.00    +0.000 OA
BRANCH 223 224
ATOM    224  C   UNL     1     -24.919  11.363  15.019  0.00  0.00    +0.000 C 
BRANCH 224 225
ATOM    225  C   UNL     1     -24.890   9.927  14.486  0.00  0.00    +0.000 C 
BRANCH 225 226
ATOM    226  O   UNL     1     -26.072   9.635  13.747  0.00  0.00    +0.000 OA
BRANCH 226 227
ATOM    227  C   UNL     1     -26.763  10.794  13.319  0.00  0.00    +0.000 C 
BRANCH 227 228
ATOM    228  C   UNL     1     -26.921  10.731  11.821  0.00  0.00    +0.000 C 
BRANCH 228 229
ATOM    229  O   UNL     1     -25.691  10.633  11.156  0.00  0.00    +0.000 OA
BRANCH 229 230
ATOM    230  C   UNL     1     -24.943  11.818  11.224  0.00  0.00    +0.000 C 
BRANCH 230 231
ATOM    231  C   UNL     1     -25.600  12.902  10.423  0.00  0.00    +0.000 C 
BRANCH 231 232
ATOM    232  O   UNL     1     -25.220  14.152  10.944  0.00  0.00    +0.000 OA
BRANCH 232 233
ATOM    233  C   UNL     1     -26.034  14.582  12.011  0.00  0.00    +0.000 C 
BRANCH 233 234
ATOM    234  C   UNL     1     -26.786  15.838  11.624  0.00  0.00    +0.000 C 
ATOM    235  O   UNL     1     -27.140  16.540  12.794  0.00  0.00    +0.000 OA
ENDBRANCH 233 234
ENDBRANCH 232 233
ENDBRANCH 231 232
ENDBRANCH 230 231
ENDBRANCH 229 230
ENDBRANCH 228 229
ENDBRANCH 227 228
ENDBRANCH 226 227
ENDBRANCH 225 226
ENDBRANCH 224 225
ENDBRANCH 223 224
ENDBRANCH 222 223
ENDBRANCH 221 222
ENDBRANCH 220 221
ENDBRANCH 219 220
ENDBRANCH 218 219
ENDBRANCH 217 218
ENDBRANCH 216 217
ENDBRANCH 215 216
ENDBRANCH 214 215
ENDBRANCH 213 214
ENDBRANCH 212 213
ENDBRANCH 211 212
ENDBRANCH 210 211
ENDBRANCH 209 210
ENDBRANCH 208 209
ENDBRANCH 207 208
ENDBRANCH 206 207
ENDBRANCH 205 206
ENDBRANCH   1 205
TORSDOF 175
BEGIN_RES LEU A  10
REMARK  2 active torsions:
REMARK  status: ('A' for Active; 'I' for Inactive)
REMARK    1  A    between atoms: CA   and  CB  
REMARK    2  A    between atoms: CB   and  CG  
ROOT
ATOM      1  CA  LEU A  10     -10.775  -4.871   5.898  1.00 25.14     0.177 C 
ENDROOT
BRANCH   1   2
ATOM      2  CB  LEU A  10     -12.191  -4.387   6.226  1.00 17.87     0.038 C 
BRANCH   2   3
ATOM      3  CG  LEU A  10     -12.436  -2.905   5.935  1.00 24.95    -0.020 C 
ATOM      4  CD2 LEU A  10     -13.728  -2.494   6.558  1.00 26.38     0.009 C 
ATOM      5  CD1 LEU A  10     -12.456  -2.641   4.440  1.00 28.12     0.009 C 
ENDBRANCH   2   3
ENDBRANCH   1   2
END_RES LEU A  10
BEGIN_RES CYS A  12
REMARK  2 active torsions:
REMARK  status: ('A' for Active; 'I' for Inactive)
REMARK    3  A    between atoms: CA   and  CB  
REMARK    4  A    between atoms: CB   and  SG  
ROOT
ATOM      6  CA  CYS A  12      -8.555   0.470   8.750  1.00 23.16     0.185 C 
ENDROOT
BRANCH   6   7
ATOM      7  CB  CYS A  12      -9.828   0.763   9.555  1.00 20.43     0.105 C 
BRANCH   7   8
ATOM      8  SG  CYS A  12     -10.698   2.307   9.143  1.00 24.64    -0.180 SA
ATOM      9  H04 CYS A  12     -10.275   2.755   7.954  1.00 24.64     0.101 HD
ENDBRANCH   7   8
ENDBRANCH   6   7
END_RES CYS A  12
BEGIN_RES GLN A  14
REMARK  3 active torsions:
REMARK  status: ('A' for Active; 'I' for Inactive)
REMARK    5  A    between atoms: CA   and  CB  
REMARK    6  A    between atoms: CB   and  CG  
REMARK    7  A    between atoms: CG   and  CD  
REMARK       I    between atoms: CD   and  NE2 
ROOT
ATOM     10  CA  GLN A  14      -4.645   5.402  11.377  1.00 10.43     0.177 C 
ENDROOT
BRANCH  10  11
ATOM     11  CB  GLN A  14      -5.541   5.549  12.608  1.00 14.45     0.044 C 
BRANCH  11  12
ATOM     12  CG  GLN A  14      -6.855   4.809  12.507  1.00 13.74     0.105 C 
BRANCH  12  13
ATOM     13  CD  GLN A  14      -7.926   5.626  11.825  1.00 16.29     0.215 C 
ATOM     14  NE2 GLN A  14      -7.513   6.562  10.998  1.00  8.57    -0.370 N 
ATOM     15  H06 GLN A  14      -8.184   7.139  10.512  1.00  8.57     0.159 HD
ATOM     16  H07 GLN A  14      -6.524   6.704  10.849  1.00  8.57     0.159 HD
ATOM     17  OE1 GLN A  14      -9.110   5.416  12.037  1.00 23.55    -0.274 OA
ENDBRANCH  12  13
ENDBRANCH  11  12
ENDBRANCH  10  11
END_RES GLN A  14
BEGIN_RES SER A  16
REMARK  2 active torsions:
REMARK  status: ('A' for Active; 'I' for Inactive)
REMARK    8  A    between atoms: CA   and  CB  
REMARK    9  A    between atoms: CB   and  OG  
ROOT
ATOM     18  CA  SER A  16      -1.305  10.019  14.282  1.00  2.34     0.200 C 
ENDROOT
BRANCH  18  19
ATOM     19  CB  SER A  16      -2.242   9.935  15.479  1.00  3.12     0.199 C 
BRANCH  19  20
ATOM     20  OG  SER A  16      -1.951   8.784  16.253  1.00  1.00    -0.398 OA
ATOM     21  H04 SER A  16      -1.265   8.993  16.891  1.00  1.00     0.209 HD
ENDBRANCH  19  20
ENDBRANCH  18  19
END_RES SER A  16
BEGIN_RES LEU A  32
REMARK  2 active torsions:
REMARK  status: ('A' for Active; 'I' for Inactive)
REMARK   10  A    between atoms: CA   and  CB  
REMARK   11  A    between atoms: CB   and  CG  
ROOT
ATOM     22  CA  LEU A  32     -10.272  -4.106   1.587  1.00 16.16     0.177 C 
ENDROOT
BRANCH  22  23
ATOM     23  CB  LEU A  32     -11.613  -3.858   0.880  1.00 12.35     0.038 C 
BRANCH  23  24
ATOM     24  CG  LEU A  32     -12.496  -5.123   0.863  1.00  9.77    -0.020 C 
ATOM     25  CD1 LEU A  32     -13.144  -5.329   2.212  1.00  4.35     0.009 C 
ATOM     26  CD2 LEU A  32     -13.557  -5.022  -0.201  1.00 10.60     0.009 C 
ENDBRANCH  23  24
ENDBRANCH  22  23
END_RES LEU A  32
BEGIN_RES HIS A  38
REMARK  2 active torsions:
REMARK  status: ('A' for Active; 'I' for Inactive)
REMARK   12  A    between atoms: CA   and  CB  
REMARK   13  A    between atoms: CB   and  CG  
ROOT
ATOM     27  CA  HIS A  38     -10.959   4.941   1.621  1.00 16.94     0.182 C 
ENDROOT
BRANCH  27  28
ATOM     28  CB  HIS A  38     -11.810   4.840   2.881  1.00 15.47     0.095 C 
BRANCH  28  29
ATOM     29  CG  HIS A  38     -12.994   3.939   2.739  1.00 18.62     0.053 A 
ATOM     30  CD2 HIS A  38     -14.162   4.104   2.073  1.00 15.06     0.116 A 
ATOM     31  NE2 HIS A  38     -14.889   2.954   2.245  1.00 18.12    -0.359 N 
ATOM     32  CE1 HIS A  38     -14.196   2.114   2.990  1.00 14.78     0.207 A 
ATOM     33  H06 HIS A  38     -15.808   2.779   1.864  1.00 18.12     0.166 HD
ATOM     34  ND1 HIS A  38     -13.049   2.683   3.303  1.00 16.58    -0.247 NA
ENDBRANCH  28  29
ENDBRANCH  27  28
END_RES HIS A  38
BEGIN_RES TRP A  63
REMARK  2 active torsions:
REMARK  status: ('A' for Active; 'I' for Inactive)
REMARK   14  A    between atoms: CA   and  CB  
REMARK   15  A    between atoms: CB   and  CG  
ROOT
ATOM     35  CA  TRP A  63     -22.437   6.257   6.543  1.00 27.04     0.181 C 
ENDROOT
BRANCH  35  36
ATOM     36  CB  TRP A  63     -22.360   6.642   5.068  1.00 31.37     0.075 C 
BRANCH  36  37
ATOM     37  CG  TRP A  63     -20.954   6.728   4.513  1.00 34.37    -0.028 A 
ATOM     38  CD2 TRP A  63     -19.922   5.736   4.607  1.00 33.79    -0.002 A 
ATOM     39  CE3 TRP A  63     -19.826   4.489   5.227  1.00 32.99     0.014 A 
ATOM     40  CE2 TRP A  63     -18.810   6.222   3.884  1.00 35.84     0.042 A 
ATOM     41  CZ3 TRP A  63     -18.642   3.774   5.110  1.00 32.93     0.001 A 
ATOM     42  CH2 TRP A  63     -17.554   4.285   4.385  1.00 39.24     0.002 A 
ATOM     43  CZ2 TRP A  63     -17.619   5.504   3.765  1.00 37.99     0.030 A 
ATOM     44  NE1 TRP A  63     -19.154   7.446   3.380  1.00 37.98    -0.365 N 
ATOM     45  H06 TRP A  63     -18.560   8.037   2.817  1.00 37.98     0.165 HD
ATOM     46  CD1 TRP A  63     -20.440   7.740   3.765  1.00 38.16     0.096 A 
ENDBRANCH  36  37
ENDBRANCH  35  36
END_RES TRP A  63
BEGIN_RES LEU A  66
REMARK  2 active torsions:
REMARK  status: ('A' for Active; 'I' for Inactive)
REMARK   16  A    between atoms: CA   and  CB  
REMARK   17  A    between atoms: CB   and  CG  
ROOT
ATOM     47  CA  LEU A  66     -20.004   6.489  11.120  1.00 10.90     0.177 C 
ENDROOT
BRANCH  47  48
ATOM     48  CB  LEU A  66     -19.626   5.453  10.069  1.00 13.57     0.038 C 
BRANCH  48  49
ATOM     49  CG  LEU A  66     -19.782   3.981  10.450  1.00  8.73    -0.020 C 
ATOM     50  CD1 LEU A  66     -21.236   3.587  10.460  1.00 14.23     0.009 C 
ATOM     51  CD2 LEU A  66     -19.027   3.146   9.448  1.00  1.92     0.009 C 
ENDBRANCH  48  49
ENDBRANCH  47  48
END_RES LEU A  66
BEGIN_RES PHE A  70
REMARK  2 active torsions:
REMARK  status: ('A' for Active; 'I' for Inactive)
REMARK   18  A    between atoms: CA   and  CB  
REMARK   19  A    between atoms: CB   and  CG  
ROOT
ATOM     52  CA  PHE A  70     -14.974   9.434  13.165  1.00  8.78     0.180 C 
ENDROOT
BRANCH  52  53
ATOM     53  CB  PHE A  70     -14.707   9.132  11.681  1.00  6.33     0.073 C 
BRANCH  53  54
ATOM     54  CG  PHE A  70     -13.910   7.875  11.460  1.00  3.42    -0.056 A 
ATOM     55  CD1 PHE A  70     -13.602   7.439  10.181  1.00 13.88     0.007 A 
ATOM     56  CE1 PHE A  70     -12.897   6.239   9.980  1.00 12.71     0.001 A 
ATOM     57  CZ  PHE A  70     -12.497   5.469  11.073  1.00  4.21     0.000 A 
ATOM     58  CE2 PHE A  70     -12.796   5.895  12.354  1.00  2.83     0.001 A 
ATOM     59  CD2 PHE A  70     -13.501   7.096  12.543  1.00  1.00     0.007 A 
ENDBRANCH  53  54
ENDBRANCH  52  53
END_RES PHE A  70
BEGIN_RES TYR A  73
REMARK  3 active torsions:
REMARK  status: ('A' for Active; 'I' for Inactive)
REMARK   20  A    between atoms: CA   and  CB  
REMARK   21  A    between atoms: CB   and  CG  
REMARK   22  A    between atoms: CZ   and  OH  
ROOT
ATOM     60  CA  TYR A  73     -13.212  10.166  17.260  1.00 12.17     0.180 C 
ENDROOT
BRANCH  60  61
ATOM     61  CB  TYR A  73     -13.301   8.846  16.517  1.00 12.84     0.073 C 
BRANCH  61  62
ATOM     62  CG  TYR A  73     -11.970   8.235  16.251  1.00 15.89    -0.056 A 
ATOM     63  CD1 TYR A  73     -11.508   8.067  14.964  1.00 16.00     0.010 A 
ATOM     64  CE1 TYR A  73     -10.275   7.467  14.712  1.00 13.55     0.037 A 
ATOM     65  CZ  TYR A  73      -9.504   7.033  15.772  1.00 18.13     0.065 A 
ATOM     66  CE2 TYR A  73      -9.941   7.190  17.067  1.00 15.89     0.037 A 
ATOM     67  CD2 TYR A  73     -11.172   7.791  17.300  1.00 21.86     0.010 A 
BRANCH  65  68
ATOM     68  OH  TYR A  73      -8.284   6.445  15.547  1.00 12.12    -0.361 OA
ATOM     69  H08 TYR A  73      -8.397   5.681  14.975  1.00 12.12     0.217 HD
ENDBRANCH  65  68
ENDBRANCH  61  62
ENDBRANCH  60  61
END_RES TYR A  73
BEGIN_RES PHE A  77
REMARK  2 active torsions:
REMARK  status: ('A' for Active; 'I' for Inactive)
REMARK   23  A    between atoms: CA   and  CB  
REMARK   24  A    between atoms: CB   and  CG  
ROOT
ATOM     70  CA  PHE A  77      -8.400  10.581  20.110  1.00 17.17     0.180 C 
ENDROOT
BRANCH  70  71
ATOM     71  CB  PHE A  77      -8.228   9.750  18.851  1.00 10.44     0.073 C 
BRANCH  71  72
ATOM     72  CG  PHE A  77      -6.916   9.034  18.776  1.00  6.07    -0.056 A 
ATOM     73  CD2 PHE A  77      -5.821   9.639  18.202  1.00  9.61     0.007 A 
ATOM     74  CE2 PHE A  77      -4.598   8.983  18.129  1.00  1.00     0.001 A 
ATOM     75  CZ  PHE A  77      -4.469   7.703  18.641  1.00  1.92     0.000 A 
ATOM     76  CE1 PHE A  77      -5.554   7.084  19.219  1.00  9.25     0.001 A 
ATOM     77  CD1 PHE A  77      -6.776   7.753  19.284  1.00  9.63     0.007 A 
ENDBRANCH  71  72
ENDBRANCH  70  71
END_RES PHE A  77
BEGIN_RES LEU A  96
REMARK  2 active torsions:
REMARK  status: ('A' for Active; 'I' for Inactive)
REMARK   25  A    between atoms: CA   and  CB  
REMARK   26  A    between atoms: CB   and  CG  
ROOT
ATOM     78  CA  LEU A  96       0.717   6.481  17.359  1.00 16.08     0.177 C 
ENDROOT
BRANCH  78  79
ATOM     79  CB  LEU A  96      -0.370   7.101  18.230  1.00 18.83     0.038 C 
BRANCH  79  80
ATOM     80  CG  LEU A  96      -0.057   7.109  19.726  1.00 19.03    -0.020 C 
ATOM     81  CD1 LEU A  96       0.700   8.373  20.059  1.00 28.17     0.009 C 
ATOM     82  CD2 LEU A  96      -1.335   7.090  20.532  1.00 22.01     0.009 C 
ENDBRANCH  79  80
ENDBRANCH  78  79
END_RES LEU A  96
BEGIN_RES VAL A  98
REMARK  1 active torsions:
REMARK  status: ('A' for Active; 'I' for Inactive)
REMARK   27  A    between atoms: CA   and  CB  
ROOT
ATOM     83  CA  VAL A  98      -3.928   2.082  14.897  1.00 19.83     0.180 C 
ENDROOT
BRANCH  83  84
ATOM     84  CB  VAL A  98      -5.203   2.807  15.281  1.00 17.87     0.009 C 
ATOM     85  CG2 VAL A  98      -5.074   3.379  16.669  1.00 29.90     0.012 C 
ATOM     86  CG1 VAL A  98      -6.374   1.850  15.200  1.00 14.79     0.012 C 
ENDBRANCH  83  84
END_RES VAL A  98
BEGIN_RES ASN A 112
REMARK  2 active torsions:
REMARK  status: ('A' for Active; 'I' for Inactive)
REMARK   28  A    between atoms: CA   and  CB  
REMARK   29  A    between atoms: CB   and  CG  
REMARK       I    between atoms: CG   and  ND2 
ROOT
ATOM     87  CA  ASN A 112     -11.790  -8.793  14.069  1.00 37.70     0.185 C 
ENDROOT
BRANCH  87  88
ATOM     88  CB  ASN A 112     -12.992  -7.945  14.465  1.00 26.24     0.137 C 
BRANCH  88  89
ATOM     89  CG  ASN A 112     -13.834  -8.580  15.548  1.00 21.77     0.217 C 
ATOM     90  ND2 ASN A 112     -14.966  -9.160  15.149  1.00  9.31    -0.370 N 
ATOM     91  H04 ASN A 112     -15.573  -9.601  15.826  1.00  9.31     0.159 HD
ATOM     92  H05 ASN A 112     -15.216  -9.160  14.171  1.00  9.31     0.159 HD
ATOM     93  OD1 ASN A 112     -13.478  -8.548  16.732  1.00 21.61    -0.274 OA
ENDBRANCH  88  89
ENDBRANCH  87  88
END_RES ASN A 112
BEGIN_RES PHE A 114
REMARK  2 active torsions:
REMARK  status: ('A' for Active; 'I' for Inactive)
REMARK   30  A    between atoms: CA   and  CB  
REMARK   31  A    between atoms: CB   and  CG  
ROOT
ATOM     94  CA  PHE A 114      -7.754  -3.619  17.012  1.00 26.06     0.180 C 
ENDROOT
BRANCH  94  95
ATOM     95  CB  PHE A 114      -8.890  -3.080  17.867  1.00 19.95     0.073 C 
BRANCH  95  96
ATOM     96  CG  PHE A 114      -8.933  -1.587  17.922  1.00 17.65    -0.056 A 
ATOM     97  CD1 PHE A 114     -10.147  -0.907  17.876  1.00 13.01     0.007 A 
ATOM     98  CE1 PHE A 114     -10.186   0.481  17.898  1.00  6.74     0.001 A 
ATOM     99  CZ  PHE A 114      -9.003   1.211  17.969  1.00  6.27     0.000 A 
ATOM    100  CE2 PHE A 114      -7.789   0.545  18.016  1.00 17.36     0.001 A 
ATOM    101  CD2 PHE A 114      -7.757  -0.853  17.993  1.00 18.39     0.007 A 
ENDBRANCH  95  96
ENDBRANCH  94  95
END_RES PHE A 114
BEGIN_RES VAL A 116
REMARK  1 active torsions:
REMARK  status: ('A' for Active; 'I' for Inactive)
REMARK   32  A    between atoms: CA   and  CB  
ROOT
ATOM    102  CA  VAL A 116      -2.467   0.283  18.565  1.00 13.48     0.180 C 
ENDROOT
BRANCH 102 103
ATOM    103  CB  VAL A 116      -3.101   1.238  19.599  1.00 20.86     0.009 C 
ATOM    104  CG1 VAL A 116      -2.650   2.673  19.314  1.00 25.01     0.012 C 
ATOM    105  CG2 VAL A 116      -4.607   1.116  19.592  1.00 25.34     0.012 C 
ENDBRANCH 102 103
END_RES VAL A 116
BEGIN_RES ILE A 123
REMARK  2 active torsions:
REMARK  status: ('A' for Active; 'I' for Inactive)
REMARK   33  A    between atoms: CA   and  CB  
REMARK   34  A    between atoms: CB   and  CG1 
ROOT
ATOM    106  CA  ILE A 123       1.557  -1.626  23.222  1.00 15.07     0.180 C 
ENDROOT
BRANCH 106 107
ATOM    107  CB  ILE A 123       1.697  -0.112  23.461  1.00 14.41     0.013 C 
ATOM    108  CG2 ILE A 123       3.120   0.216  23.878  1.00 18.35     0.012 C 
BRANCH 107 109
ATOM    109  CG1 ILE A 123       1.325   0.661  22.198  1.00 15.23     0.002 C 
ATOM    110  CD1 ILE A 123       0.185   1.631  22.394  1.00 14.67     0.005 C 
ENDBRANCH 107 109
ENDBRANCH 106 107
END_RES ILE A 123
BEGIN_RES LEU A 124
REMARK  2 active torsions:
REMARK  status: ('A' for Active; 'I' for Inactive)
REMARK   35  A    between atoms: CA   and  CB  
REMARK   36  A    between atoms: CB   and  CG  
ROOT
ATOM    111  CA  LEU A 124      -2.057  -2.686  23.524  1.00 11.86     0.177 C 
ENDROOT
BRANCH 111 112
ATOM    112  CB  LEU A 124      -2.698  -1.652  24.429  1.00 14.60     0.038 C 
BRANCH 112 113
ATOM    113  CG  LEU A 124      -2.576  -0.244  23.865  1.00 16.19    -0.020 C 
ATOM    114  CD1 LEU A 124      -3.884   0.120  23.138  1.00 22.07     0.009 C 
ATOM    115  CD2 LEU A 124      -2.266   0.720  24.983  1.00  9.12     0.009 C 
ENDBRANCH 112 113
ENDBRANCH 111 112
END_RES LEU A 124
BEGIN_RES PHE A 126
REMARK  2 active torsions:
REMARK  status: ('A' for Active; 'I' for Inactive)
REMARK   37  A    between atoms: CA   and  CB  
REMARK   38  A    between atoms: CB   and  CG  
ROOT
ATOM    116  CA  PHE A 126      -8.784  -4.792  22.233  1.00 23.15     0.180 C 
ENDROOT
BRANCH 116 117
ATOM    117  CB  PHE A 126      -9.823  -4.011  21.461  1.00 20.65     0.073 C 
BRANCH 117 118
ATOM    118  CG  PHE A 126     -10.970  -3.578  22.288  1.00 23.65    -0.056 A 
ATOM    119  CD2 PHE A 126     -10.795  -2.669  23.316  1.00 36.63     0.007 A 
ATOM    120  CE2 PHE A 126     -11.883  -2.258  24.098  1.00 36.27     0.001 A 
ATOM    121  CZ  PHE A 126     -13.148  -2.766  23.844  1.00 18.06     0.000 A 
ATOM    122  CE1 PHE A 126     -13.327  -3.672  22.818  1.00  5.50     0.001 A 
ATOM    123  CD1 PHE A 126     -12.239  -4.073  22.043  1.00 15.29     0.007 A 
ENDBRANCH 117 118
ENDBRANCH 116 117
END_RES PHE A 126
BEGIN_RES TRP A 131
REMARK  2 active torsions:
REMARK  status: ('A' for Active; 'I' for Inactive)
REMARK   39  A    between atoms: CA   and  CB  
REMARK   40  A    between atoms: CB   and  CG  
ROOT
ATOM    124  CA  TRP A 131      -8.096  -3.335  26.542  1.00 14.52     0.181 C 
ENDROOT
BRANCH 124 125
ATOM    125  CB  TRP A 131      -7.651  -1.877  26.607  1.00 13.06     0.075 C 
BRANCH 125 126
ATOM    126  CG  TRP A 131      -8.450  -0.944  25.724  1.00 16.97    -0.028 A 
ATOM    127  CD2 TRP A 131      -8.234  -0.695  24.332  1.00 11.34    -0.002 A 
ATOM    128  CE2 TRP A 131      -9.207   0.232  23.913  1.00  5.87     0.042 A 
ATOM    129  CE3 TRP A 131      -7.306  -1.171  23.399  1.00  3.80     0.014 A 
ATOM    130  CZ2 TRP A 131      -9.282   0.693  22.597  1.00  1.35     0.030 A 
ATOM    131  NE1 TRP A 131      -9.980   0.537  24.999  1.00 13.90    -0.365 N 
ATOM    132  CH2 TRP A 131      -8.361   0.209  21.702  1.00  1.00     0.002 A 
ATOM    133  CZ3 TRP A 131      -7.375  -0.716  22.094  1.00  1.00     0.001 A 
ATOM    134  CD1 TRP A 131      -9.521  -0.173  26.084  1.00 17.22     0.096 A 
ATOM    135  H07 TRP A 131     -10.761   1.178  25.004  1.00 13.90     0.165 HD
ENDBRANCH 125 126
ENDBRANCH 124 125
END_RES TRP A 131
BEGIN_RES LEU A 148
REMARK  2 active torsions:
REMARK  status: ('A' for Active; 'I' for Inactive)
REMARK   41  A    between atoms: CA   and  CB  
REMARK   42  A    between atoms: CB   and  CG  
ROOT
ATOM    136  CA  LEU A 148      -9.018   3.259  29.295  1.00 16.99     0.177 C 
ENDROOT
BRANCH 136 137
ATOM    137  CB  LEU A 148      -8.166   2.574  28.236  1.00  6.39     0.038 C 
BRANCH 137 138
ATOM    138  CG  LEU A 148      -7.409   3.379  27.200  1.00  1.00    -0.020 C 
ATOM    139  CD2 LEU A 148      -5.941   3.075  27.273  1.00  1.00     0.009 C 
ATOM    140  CD1 LEU A 148      -7.663   4.852  27.464  1.00  2.71     0.009 C 
ENDBRANCH 137 138
ENDBRANCH 136 137
END_RES LEU A 148
BEGIN_RES THR A 154
REMARK  2 active torsions:
REMARK  status: ('A' for Active; 'I' for Inactive)
REMARK   43  A    between atoms: CA   and  CB  
REMARK   44  A    between atoms: CB   and  OG1 
ROOT
ATOM    141  CA  THR A 154     -15.990   3.959  24.426  1.00 20.45     0.205 C 
ENDROOT
BRANCH 141 142
ATOM    142  CB  THR A 154     -14.777   4.829  24.694  1.00 16.79     0.146 C 
ATOM    143  CG2 THR A 154     -13.621   4.403  23.809  1.00 20.24     0.042 C 
BRANCH 142 144
ATOM    144  OG1 THR A 154     -15.108   6.192  24.398  1.00 18.84    -0.393 OA
ATOM    145  H06 THR A 154     -15.962   6.404  24.782  1.00 18.84     0.210 HD
ENDBRANCH 142 144
ENDBRANCH 141 142
END_RES THR A 154
BEGIN_RES VAL A 158
REMARK  1 active torsions:
REMARK  status: ('A' for Active; 'I' for Inactive)
REMARK   45  A    between atoms: CA   and  CB  
ROOT
ATOM    146  CA  VAL A 158     -15.487  -0.189  19.892  1.00 15.49     0.180 C 
ENDROOT
BRANCH 146 147
ATOM    147  CB  VAL A 158     -14.291  -0.273  20.822  1.00  6.52     0.009 C 
ATOM    148  CG1 VAL A 158     -13.184  -1.094  20.203  1.00  1.00     0.012 C 
ATOM    149  CG2 VAL A 158     -13.817   1.116  21.120  1.00  5.99     0.012 C 
ENDBRANCH 146 147
END_RES VAL A 158
BEGIN_RES LEU A 161
REMARK  2 active torsions:
REMARK  status: ('A' for Active; 'I' for Inactive)
REMARK   46  A    between atoms: CA   and  CB  
REMARK   47  A    between atoms: CB   and  CG  
ROOT
ATOM    150  CA  LEU A 161     -18.031  -1.858  15.935  1.00 13.31     0.177 C 
ENDROOT
BRANCH 150 151
ATOM    151  CB  LEU A 161     -17.046  -0.706  16.001  1.00 14.13     0.038 C 
BRANCH 151 152
ATOM    152  CG  LEU A 161     -17.487   0.597  15.346  1.00 19.39    -0.020 C 
ATOM    153  CD2 LEU A 161     -16.618   0.899  14.149  1.00 27.75     0.009 C 
ATOM    154  CD1 LEU A 161     -17.381   1.709  16.354  1.00 18.59     0.009 C 
ENDBRANCH 151 152
ENDBRANCH 150 151
END_RES LEU A 161
BEGIN_RES GLN A 168
REMARK  3 active torsions:
REMARK  status: ('A' for Active; 'I' for Inactive)
REMARK   48  A    between atoms: CA   and  CB  
REMARK   49  A    between atoms: CB   and  CG  
REMARK   50  A    between atoms: CG   and  CD  
REMARK       I    between atoms: CD   and  NE2 
ROOT
ATOM    155  CA  GLN A 168     -22.035  -6.020   8.155  1.00 30.94     0.177 C 
ENDROOT
BRANCH 155 156
ATOM    156  CB  GLN A 168     -23.054  -5.218   8.946  1.00 41.76     0.044 C 
BRANCH 156 157
ATOM    157  CG  GLN A 168     -24.467  -5.335   8.443  1.00 61.20     0.105 C 
BRANCH 157 158
ATOM    158  CD  GLN A 168     -25.095  -3.977   8.200  1.00 75.49     0.215 C 
ATOM    159  NE2 GLN A 168     -25.842  -3.860   7.101  1.00 85.00    -0.370 N 
ATOM    160  H06 GLN A 168     -26.286  -2.979   6.882  1.00 85.00     0.159 HD
ATOM    161  H07 GLN A 168     -25.964  -4.653   6.486  1.00 85.00     0.159 HD
ATOM    162  OE1 GLN A 168     -24.909  -3.037   8.986  1.00 73.64    -0.274 OA
ENDBRANCH 157 158
ENDBRANCH 156 157
ENDBRANCH 155 156
END_RES GLN A 168
ENDMDL
MODEL 7
REMARK VINA RESULT:      -5.5      1.367      2.110
REMARK  Name = human_CD1d_Tyloxapol_pred.rank_0
REMARK  175 active torsions:
REMARK  status: ('A' for Active; 'I' for Inactive)
REMARK    1  A    between atoms: C_1  and  C_3
REMARK    2  A    between atoms: C_3  and  O_4
REMARK    3  A    between atoms: O_4  and  C_5
REMARK    4  A    between atoms: C_5  and  C_7
REMARK    5  A    between atoms: O_6  and  C_7
REMARK    6  A    between atoms: O_6  and  C_9
REMARK    7  A    between atoms: O_8  and  C_11
REMARK    8  A    between atoms: O_8  and  C_13
REMARK    9  A    between atoms: C_9  and  C_11
REMARK   10  A    between atoms: O_10  and  C_15
REMARK   11  A    between atoms: O_10  and  C_17
REMARK   12  A    between atoms: O_12  and  C_19
REMARK   13  A    between atoms: O_12  and  C_21
REMARK   14  A    between atoms: C_13  and  C_15
REMARK   15  A    between atoms: O_14  and  C_23
REMARK   16  A    between atoms: O_14  and  C_25
REMARK   17  A    between atoms: O_16  and  C_27
REMARK   18  A    between atoms: O_16  and  C_29
REMARK   19  A    between atoms: C_17  and  C_19
REMARK   20  A    between atoms: O_18  and  C_37
REMARK   21  A    between atoms: O_18  and  C_39
REMARK   22  A    between atoms: O_20  and  C_41
REMARK   23  A    between atoms: O_20  and  C_43
REMARK   24  A    between atoms: C_21  and  C_23
REMARK   25  A    between atoms: O_22  and  C_49
REMARK   26  A    between atoms: O_22  and  C_51
REMARK   27  A    between atoms: O_24  and  C_53
REMARK   28  A    between atoms: O_24  and  C_55
REMARK   29  A    between atoms: C_25  and  C_27
REMARK   30  A    between atoms: O_26  and  C_57
REMARK   31  A    between atoms: O_26  and  C_59
REMARK   32  A    between atoms: O_28  and  C_61
REMARK   33  A    between atoms: O_28  and  C_63
REMARK   34  A    between atoms: C_29  and  C_31
REMARK   35  A    between atoms: O_30  and  C_65
REMARK   36  A    between atoms: O_30  and  C_67
REMARK   37  A    between atoms: C_31  and  C_33
REMARK   38  A    between atoms: O_32  and  C_69
REMARK   39  A    between atoms: O_32  and  C_71
REMARK   40  A    between atoms: C_33  and  C_35
REMARK   41  A    between atoms: O_34  and  C_73
REMARK   42  A    between atoms: O_34  and  C_75
REMARK   43  A    between atoms: C_35  and  C_37
REMARK   44  A    between atoms: O_36  and  C_77
REMARK   45  A    between atoms: O_36  and  C_79
REMARK   46  A    between atoms: O_38  and  C_81
REMARK   47  A    between atoms: O_38  and  C_83
REMARK   48  A    between atoms: C_39  and  C_41
REMARK   49  A    between atoms: O_40  and  C_85
REMARK   50  A    between atoms: O_40  and  C_87
REMARK   51  A    between atoms: C_43  and  C_45
REMARK   52  A    between atoms: C_43  and  C_163
REMARK   53  A    between atoms: O_44  and  C_116
REMARK   54  A    between atoms: O_44  and  C_117
REMARK   55  A    between atoms: C_45  and  C_47
REMARK   56  A    between atoms: C_45  and  C_150
REMARK   57  A    between atoms: O_46  and  C_118
REMARK   58  A    between atoms: O_46  and  C_119
REMARK   59  A    between atoms: O_48  and  C_120
REMARK   60  A    between atoms: O_48  and  C_121
REMARK   61  A    between atoms: O_50  and  C_122
REMARK   62  A    between atoms: O_50  and  C_123
REMARK   63  A    between atoms: C_51  and  C_53
REMARK   64  A    between atoms: O_52  and  C_124
REMARK   65  A    between atoms: O_52  and  C_125
REMARK   66  A    between atoms: O_54  and  C_126
REMARK   67  A    between atoms: O_54  and  C_127
REMARK   68  A    between atoms: C_55  and  C_57
REMARK   69  A    between atoms: O_56  and  C_128
REMARK   70  A    between atoms: O_56  and  C_129
REMARK   71  A    between atoms: O_58  and  C_130
REMARK   72  A    between atoms: O_58  and  C_131
REMARK   73  A    between atoms: C_59  and  C_61
REMARK   74  A    between atoms: O_60  and  C_132
REMARK   75  A    between atoms: O_60  and  C_133
REMARK   76  A    between atoms: O_62  and  C_134
REMARK   77  A    between atoms: O_62  and  C_135
REMARK   78  A    between atoms: C_63  and  C_65
REMARK   79  A    between atoms: O_66  and  C_180
REMARK   80  A    between atoms: O_66  and  C_181
REMARK   81  A    between atoms: C_67  and  C_69
REMARK   82  A    between atoms: O_68  and  C_182
REMARK   83  A    between atoms: O_68  and  C_183
REMARK   84  A    between atoms: O_70  and  C_184
REMARK   85  A    between atoms: O_70  and  C_185
REMARK   86  A    between atoms: C_71  and  C_73
REMARK   87  A    between atoms: O_72  and  C_186
REMARK   88  A    between atoms: O_72  and  C_187
REMARK   89  A    between atoms: O_74  and  C_188
REMARK   90  A    between atoms: O_74  and  C_189
REMARK   91  A    between atoms: C_75  and  C_77
REMARK   92  A    between atoms: O_76  and  C_190
REMARK   93  A    between atoms: O_76  and  C_191
REMARK   94  A    between atoms: O_78  and  C_192
REMARK   95  A    between atoms: O_78  and  C_193
REMARK   96  A    between atoms: C_79  and  C_81
REMARK   97  A    between atoms: O_80  and  C_194
REMARK   98  A    between atoms: O_80  and  C_195
REMARK   99  A    between atoms: O_82  and  C_196
REMARK  100  A    between atoms: O_82  and  C_197
REMARK  101  A    between atoms: C_83  and  C_85
REMARK  102  A    between atoms: O_84  and  C_198
REMARK  103  A    between atoms: O_84  and  C_199
REMARK  104  A    between atoms: C_87  and  C_89
REMARK  105  A    between atoms: O_88  and  C_215
REMARK  106  A    between atoms: O_88  and  C_216
REMARK  107  A    between atoms: O_90  and  C_217
REMARK  108  A    between atoms: O_90  and  C_218
REMARK  109  A    between atoms: O_92  and  C_219
REMARK  110  A    between atoms: O_92  and  C_220
REMARK  111  A    between atoms: O_94  and  C_221
REMARK  112  A    between atoms: O_94  and  C_222
REMARK  113  A    between atoms: O_96  and  C_223
REMARK  114  A    between atoms: O_96  and  C_224
REMARK  115  A    between atoms: C_97  and  C_99
REMARK  116  A    between atoms: O_98  and  C_225
REMARK  117  A    between atoms: O_98  and  C_226
REMARK  118  A    between atoms: C_99  and  C_105
REMARK  119  A    between atoms: O_100  and  C_227
REMARK  120  A    between atoms: O_100  and  C_228
REMARK  121  A    between atoms: O_102  and  C_229
REMARK  122  A    between atoms: O_102  and  C_230
REMARK  123  A    between atoms: O_104  and  C_231
REMARK  124  A    between atoms: O_104  and  C_232
REMARK  125  A    between atoms: C_105  and  C_107
REMARK  126  A    between atoms: O_106  and  C_233
REMARK  127  A    between atoms: O_106  and  C_234
REMARK  128  A    between atoms: C_117  and  C_118
REMARK  129  A    between atoms: C_119  and  C_120
REMARK  130  A    between atoms: C_121  and  C_122
REMARK  131  A    between atoms: C_123  and  C_124
REMARK  132  A    between atoms: C_125  and  C_126
REMARK  133  A    between atoms: C_127  and  C_128
REMARK  134  A    between atoms: C_129  and  C_130
REMARK  135  A    between atoms: C_131  and  C_132
REMARK  136  A    between atoms: C_133  and  C_134
REMARK  137  A    between atoms: C_135  and  C_136
REMARK  138  A    between atoms: C_138  and  C_139
REMARK  139  A    between atoms: C_139  and  C_142
REMARK  140  A    between atoms: C_142  and  C_145
REMARK  141  A    between atoms: C_150  and  C_151
REMARK  142  A    between atoms: C_151  and  C_152
REMARK  143  A    between atoms: C_152  and  C_155
REMARK  144  A    between atoms: C_155  and  C_158
REMARK  145  A    between atoms: C_163  and  C_164
REMARK  146  A    between atoms: C_166  and  C_167
REMARK  147  A    between atoms: C_167  and  C_168
REMARK  148  A    between atoms: C_168  and  C_171
REMARK  149  A    between atoms: C_178  and  C_179
REMARK  150  A    between atoms: C_179  and  C_180
REMARK  151  A    between atoms: C_179  and  C_214
REMARK  152  A    between atoms: C_181  and  C_182
REMARK  153  A    between atoms: C_183  and  C_184
REMARK  154  A    between atoms: C_185  and  C_186
REMARK  155  A    between atoms: C_187  and  C_188
REMARK  156  A    between atoms: C_189  and  C_190
REMARK  157  A    between atoms: C_191  and  C_192
REMARK  158  A    between atoms: C_193  and  C_194
REMARK  159  A    between atoms: C_195  and  C_196
REMARK  160  A    between atoms: C_197  and  C_198
REMARK  161  A    between atoms: C_199  and  C_200
REMARK  162  A    between atoms: C_203  and  C_204
REMARK  163  A    between atoms: C_203  and  C_214
REMARK  164  A    between atoms: C_204  and  C_207
REMARK  165  A    between atoms: C_207  and  C_210
REMARK  166  A    between atoms: C_216  and  C_217
REMARK  167  A    between atoms: C_218  and  C_219
REMARK  168  A    between atoms: C_220  and  C_221
REMARK  169  A    between atoms: C_222  and  C_223
REMARK  170  A    between atoms: C_224  and  C_225
REMARK  171  A    between atoms: C_226  and  C_227
REMARK  172  A    between atoms: C_228  and  C_229
REMARK  173  A    between atoms: C_230  and  C_231
REMARK  174  A    between atoms: C_232  and  C_233
REMARK  175  A    between atoms: C_234  and  C_235
REMARK                            x       y       z     vdW  Elec       q    Type
REMARK                         _______ _______ _______ _____ _____    ______ ____
ROOT
ATOM      1  C   UNL     1     -12.922  11.084  28.158  0.00  0.00    +0.000 C 
ENDROOT
BRANCH   1   2
ATOM      2  C   UNL     1     -12.982   9.999  26.532  0.00  0.00    +0.000 C 
BRANCH   2   3
ATOM      3  C   UNL     1     -12.591   8.486  26.600  0.00  0.00    +0.000 C 
ATOM      4  C   UNL     1     -11.661   8.146  27.925  0.00  0.00    +0.000 C 
ATOM      5  C   UNL     1     -10.174   8.163  27.598  0.00  0.00    +0.000 C 
ATOM      6  C   UNL     1      -9.872   6.824  26.517  0.00  0.00    +0.000 C 
ATOM      7  C   UNL     1     -10.189   6.946  25.082  0.00  0.00    +0.000 C 
ATOM      8  C   UNL     1     -11.803   7.640  24.914  0.00  0.00    +0.000 C 
BRANCH   5   9
ATOM      9  C   UNL     1      -9.258   8.114  28.941  0.00  0.00    +0.000 C 
ATOM     10  C   UNL     1      -9.886   7.562  29.826  0.00  0.00    +0.000 C 
ATOM     11  C   UNL     1      -7.861   7.500  28.495  0.00  0.00    +0.000 C 
BRANCH   9  12
ATOM     12  C   UNL     1      -8.815   9.609  29.465  0.00  0.00    +0.000 C 
ATOM     13  C   UNL     1      -9.281   9.846  30.923  0.00  0.00    +0.000 C 
ATOM     14  C   UNL     1      -9.793  10.812  28.753  0.00  0.00    +0.000 C 
BRANCH  12  15
ATOM     15  C   UNL     1      -7.461  10.162  29.152  0.00  0.00    +0.000 C 
ATOM     16  C   UNL     1      -6.768   9.781  30.452  0.00  0.00    +0.000 C 
ATOM     17  C   UNL     1      -7.339  11.628  29.038  0.00  0.00    +0.000 C 
ATOM     18  C   UNL     1      -6.849   9.558  27.959  0.00  0.00    +0.000 C 
ENDBRANCH  12  15
ENDBRANCH   9  12
ENDBRANCH   5   9
BRANCH   7  19
ATOM     19  C   UNL     1      -9.539   5.863  24.120  0.00  0.00    +0.000 C 
BRANCH  19  20
ATOM     20  C   UNL     1     -10.101   5.910  22.653  0.00  0.00    +0.000 C 
ATOM     21  C   UNL     1      -9.168   6.728  21.673  0.00  0.00    +0.000 C 
BRANCH  20  22
ATOM     22  O   UNL     1     -10.075   4.548  22.088  0.00  0.00    +0.000 OA
BRANCH  22  23
ATOM     23  C   UNL     1     -10.085   4.479  20.688  0.00  0.00    +0.000 C 
BRANCH  23  24
ATOM     24  C   UNL     1     -11.487   4.171  20.183  0.00  0.00    +0.000 C 
BRANCH  24  25
ATOM     25  O   UNL     1     -11.532   4.393  18.811  0.00  0.00    +0.000 OA
BRANCH  25  26
ATOM     26  C   UNL     1     -10.902   3.365  18.061  0.00  0.00    +0.000 C 
BRANCH  26  27
ATOM     27  C   UNL     1     -10.984   3.641  16.622  0.00  0.00    +0.000 C 
BRANCH  27  28
ATOM     28  O   UNL     1      -9.733   3.505  16.058  0.00  0.00    +0.000 OA
BRANCH  28  29
ATOM     29  C   UNL     1      -9.725   2.913  14.775  0.00  0.00    +0.000 C 
BRANCH  29  30
ATOM     30  C   UNL     1     -11.148   2.766  14.292  0.00  0.00    +0.000 C 
BRANCH  30  31
ATOM     31  O   UNL     1     -11.143   2.880  12.903  0.00  0.00    +0.000 OA
BRANCH  31  32
ATOM     32  C   UNL     1     -12.036   1.926  12.300  0.00  0.00    +0.000 C 
BRANCH  32  33
ATOM     33  C   UNL     1     -13.475   2.366  12.616  0.00  0.00    +0.000 C 
BRANCH  33  34
ATOM     34  O   UNL     1     -14.143   2.573  11.413  0.00  0.00    +0.000 OA
BRANCH  34  35
ATOM     35  C   UNL     1     -15.542   2.887  11.562  0.00  0.00    +0.000 C 
BRANCH  35  36
ATOM     36  C   UNL     1     -15.820   4.344  11.341  0.00  0.00    +0.000 C 
BRANCH  36  37
ATOM     37  O   UNL     1     -16.833   4.730  12.317  0.00  0.00    +0.000 OA
BRANCH  37  38
ATOM     38  C   UNL     1     -17.362   3.595  12.954  0.00  0.00    +0.000 C 
BRANCH  38  39
ATOM     39  C   UNL     1     -18.647   3.840  13.638  0.00  0.00    +0.000 C 
BRANCH  39  40
ATOM     40  O   UNL     1     -19.501   2.614  13.462  0.00  0.00    +0.000 OA
BRANCH  40  41
ATOM     41  C   UNL     1     -20.854   2.860  13.764  0.00  0.00    +0.000 C 
BRANCH  41  42
ATOM     42  C   UNL     1     -21.338   1.979  14.862  0.00  0.00    +0.000 C 
BRANCH  42  43
ATOM     43  O   UNL     1     -22.535   1.393  14.534  0.00  0.00    +0.000 OA
BRANCH  43  44
ATOM     44  C   UNL     1     -23.279   2.021  13.529  0.00  0.00    +0.000 C 
BRANCH  44  45
ATOM     45  C   UNL     1     -23.690   1.072  12.461  0.00  0.00    +0.000 C 
BRANCH  45  46
ATOM     46  O   UNL     1     -24.060  -0.157  13.095  0.00  0.00    +0.000 OA
BRANCH  46  47
ATOM     47  C   UNL     1     -25.084  -0.784  12.342  0.00  0.00    +0.000 C 
BRANCH  47  48
ATOM     48  C   UNL     1     -25.047  -0.190  10.872  0.00  0.00    +0.000 C 
BRANCH  48  49
ATOM     49  O   UNL     1     -25.952  -0.873  10.077  0.00  0.00    +0.000 OA
BRANCH  49  50
ATOM     50  C   UNL     1     -25.619  -2.184   9.769  0.00  0.00    +0.000 C 
BRANCH  50  52
ATOM     51  O   UNL     1     -26.733  -3.744  11.188  0.00  0.00    +0.000 OA
ATOM     52  C   UNL     1     -26.864  -3.082   9.915  0.00  0.00    +0.000 C 
ENDBRANCH  50  52
ENDBRANCH  49  50
ENDBRANCH  48  49
ENDBRANCH  47  48
ENDBRANCH  46  47
ENDBRANCH  45  46
ENDBRANCH  44  45
ENDBRANCH  43  44
ENDBRANCH  42  43
ENDBRANCH  41  42
ENDBRANCH  40  41
ENDBRANCH  39  40
ENDBRANCH  38  39
ENDBRANCH  37  38
ENDBRANCH  36  37
ENDBRANCH  35  36
ENDBRANCH  34  35
ENDBRANCH  33  34
ENDBRANCH  32  33
ENDBRANCH  31  32
ENDBRANCH  30  31
ENDBRANCH  29  30
ENDBRANCH  28  29
ENDBRANCH  27  28
ENDBRANCH  26  27
ENDBRANCH  25  26
ENDBRANCH  24  25
ENDBRANCH  23  24
ENDBRANCH  22  23
ENDBRANCH  20  22
ENDBRANCH  19  20
BRANCH  19  53
ATOM     53  C   UNL     1      -7.933   5.897  23.944  0.00  0.00    +0.000 C 
BRANCH  53  55
ATOM     54  C   UNL     1      -7.511   3.635  23.366  0.00  0.00    +0.000 C 
ATOM     55  C   UNL     1      -7.080   5.057  23.342  0.00  0.00    +0.000 C 
BRANCH  55  56
ATOM     56  C   UNL     1      -5.765   5.458  22.676  0.00  0.00    +0.000 C 
ATOM     57  C   UNL     1      -5.982   5.065  21.254  0.00  0.00    +0.000 C 
ATOM     58  C   UNL     1      -5.629   6.954  22.717  0.00  0.00    +0.000 C 
BRANCH  56  59
ATOM     59  C   UNL     1      -4.546   4.745  23.335  0.00  0.00    +0.000 C 
ATOM     60  C   UNL     1      -4.529   3.291  23.066  0.00  0.00    +0.000 C 
ATOM     61  C   UNL     1      -4.642   4.984  24.860  0.00  0.00    +0.000 C 
BRANCH  59  62
ATOM     62  C   UNL     1      -3.129   5.331  22.888  0.00  0.00    +0.000 C 
ATOM     63  C   UNL     1      -2.861   6.636  23.549  0.00  0.00    +0.000 C 
ATOM     64  C   UNL     1      -3.144   5.617  21.406  0.00  0.00    +0.000 C 
ATOM     65  C   UNL     1      -2.020   4.416  23.087  0.00  0.00    +0.000 C 
ENDBRANCH  59  62
ENDBRANCH  56  59
ENDBRANCH  55  56
ENDBRANCH  53  55
ENDBRANCH  19  53
ENDBRANCH   7  19
BRANCH   8  66
ATOM     66  O   UNL     1     -12.572   7.671  23.787  0.00  0.00    +0.000 OA
BRANCH  66  67
ATOM     67  C   UNL     1     -12.498   8.853  23.024  0.00  0.00    +0.000 C 
BRANCH  67  68
ATOM     68  C   UNL     1     -12.007   8.721  21.565  0.00  0.00    +0.000 C 
BRANCH  68  69
ATOM     69  O   UNL     1     -12.616   7.602  20.983  0.00  0.00    +0.000 OA
BRANCH  69  70
ATOM     70  C   UNL     1     -13.812   7.946  20.210  0.00  0.00    +0.000 C 
BRANCH  70  71
ATOM     71  C   UNL     1     -14.329   6.740  19.445  0.00  0.00    +0.000 C 
BRANCH  71  72
ATOM     72  O   UNL     1     -14.736   5.647  20.452  0.00  0.00    +0.000 OA
BRANCH  72  73
ATOM     73  C   UNL     1     -15.098   4.448  19.781  0.00  0.00    +0.000 C 
BRANCH  73  74
ATOM     74  C   UNL     1     -15.413   4.776  18.316  0.00  0.00    +0.000 C 
BRANCH  74  75
ATOM     75  O   UNL     1     -14.606   4.040  17.452  0.00  0.00    +0.000 OA
BRANCH  75  76
ATOM     76  C   UNL     1     -14.510   2.655  17.809  0.00  0.00    +0.000 C 
BRANCH  76  77
ATOM     77  C   UNL     1     -14.033   1.811  16.658  0.00  0.00    +0.000 C 
BRANCH  77  78
ATOM     78  O   UNL     1     -13.259   0.781  17.256  0.00  0.00    +0.000 OA
BRANCH  78  79
ATOM     79  C   UNL     1     -13.378  -0.511  16.573  0.00  0.00    +0.000 C 
BRANCH  79  80
ATOM     80  C   UNL     1     -13.013  -0.277  15.157  0.00  0.00    +0.000 C 
BRANCH  80  81
ATOM     81  O   UNL     1     -13.808  -1.073  14.238  0.00  0.00    +0.000 OA
BRANCH  81  82
ATOM     82  C   UNL     1     -13.103  -1.517  13.125  0.00  0.00    +0.000 C 
BRANCH  82  83
ATOM     83  C   UNL     1     -13.927  -1.297  11.841  0.00  0.00    +0.000 C 
BRANCH  83  84
ATOM     84  O   UNL     1     -15.290  -1.136  12.154  0.00  0.00    +0.000 OA
BRANCH  84  85
ATOM     85  C   UNL     1     -16.100  -0.672  11.194  0.00  0.00    +0.000 C 
BRANCH  85  86
ATOM     86  C   UNL     1     -15.455  -0.852   9.804  0.00  0.00    +0.000 C 
BRANCH  86  87
ATOM     87  O   UNL     1     -15.343   0.351   9.088  0.00  0.00    +0.000 OA
BRANCH  87  88
ATOM     88  C   UNL     1     -14.357   0.346   8.116  0.00  0.00    +0.000 C 
BRANCH  88  89
ATOM     89  C   UNL     1     -13.976   1.759   7.709  0.00  0.00    +0.000 C 
BRANCH  89  90
ATOM     90  O   UNL     1     -15.148   2.565   7.638  0.00  0.00    +0.000 OA
BRANCH  90  91
ATOM     91  C   UNL     1     -14.842   3.878   8.151  0.00  0.00    +0.000 C 
BRANCH  91  92
ATOM     92  C   UNL     1     -14.763   4.820   6.976  0.00  0.00    +0.000 C 
BRANCH  92  93
ATOM     93  O   UNL     1     -15.219   6.103   7.396  0.00  0.00    +0.000 OA
BRANCH  93  94
ATOM     94  C   UNL     1     -16.391   6.060   8.115  0.00  0.00    +0.000 C 
BRANCH  94  96
ATOM     95  O   UNL     1     -17.118   7.208   6.132  0.00  0.00    +0.000 OA
ATOM     96  C   UNL     1     -17.578   6.482   7.242  0.00  0.00    +0.000 C 
ENDBRANCH  94  96
ENDBRANCH  93  94
ENDBRANCH  92  93
ENDBRANCH  91  92
ENDBRANCH  90  91
ENDBRANCH  89  90
ENDBRANCH  88  89
ENDBRANCH  87  88
ENDBRANCH  86  87
ENDBRANCH  85  86
ENDBRANCH  84  85
ENDBRANCH  83  84
ENDBRANCH  82  83
ENDBRANCH  81  82
ENDBRANCH  80  81
ENDBRANCH  79  80
ENDBRANCH  78  79
ENDBRANCH  77  78
ENDBRANCH  76  77
ENDBRANCH  75  76
ENDBRANCH  74  75
ENDBRANCH  73  74
ENDBRANCH  72  73
ENDBRANCH  71  72
ENDBRANCH  70  71
ENDBRANCH  69  70
ENDBRANCH  68  69
ENDBRANCH  67  68
ENDBRANCH  66  67
ENDBRANCH   8  66
ENDBRANCH   2   3
ENDBRANCH   1   2
BRANCH   1  97
ATOM     97  C   UNL     1     -13.934  11.087  29.289  0.00  0.00    +0.000 C 
BRANCH  97  98
ATOM     98  C   UNL     1     -15.340  10.416  28.856  0.00  0.00    +0.000 C 
ATOM     99  C   UNL     1     -15.886  10.998  27.518  0.00  0.00    +0.000 C 
ATOM    100  C   UNL     1     -17.271  10.412  26.995  0.00  0.00    +0.000 C 
ATOM    101  C   UNL     1     -18.416  10.306  26.086  0.00  0.00    +0.000 C 
ATOM    102  C   UNL     1     -19.854  10.062  26.478  0.00  0.00    +0.000 C 
ATOM    103  C   UNL     1     -20.914  10.028  25.494  0.00  0.00    +0.000 C 
ATOM    104  C   UNL     1     -20.534  10.309  24.135  0.00  0.00    +0.000 C 
ATOM    105  C   UNL     1     -19.220  10.458  23.708  0.00  0.00    +0.000 C 
ATOM    106  C   UNL     1     -18.298  10.412  24.710  0.00  0.00    +0.000 C 
ATOM    107  C   UNL     1     -17.676  10.080  27.652  0.00  0.00    +0.000 C 
ATOM    108  C   UNL     1     -17.427   9.360  28.769  0.00  0.00    +0.000 C 
ATOM    109  C   UNL     1     -15.993   9.229  29.302  0.00  0.00    +0.000 C 
BRANCH 103 110
ATOM    110  C   UNL     1     -22.331   9.671  25.934  0.00  0.00    +0.000 C 
ATOM    111  C   UNL     1     -22.269   8.138  26.189  0.00  0.00    +0.000 C 
ATOM    112  C   UNL     1     -22.597  10.262  27.240  0.00  0.00    +0.000 C 
BRANCH 110 113
ATOM    113  C   UNL     1     -23.549   9.944  25.021  0.00  0.00    +0.000 C 
ATOM    114  C   UNL     1     -23.374   9.078  23.814  0.00  0.00    +0.000 C 
ATOM    115  C   UNL     1     -24.830   9.574  25.774  0.00  0.00    +0.000 C 
BRANCH 113 116
ATOM    116  C   UNL     1     -23.740  11.467  24.590  0.00  0.00    +0.000 C 
ATOM    117  C   UNL     1     -23.097  12.402  25.595  0.00  0.00    +0.000 C 
ATOM    118  C   UNL     1     -25.179  11.842  24.617  0.00  0.00    +0.000 C 
ATOM    119  C   UNL     1     -23.208  11.707  23.205  0.00  0.00    +0.000 C 
ENDBRANCH 113 116
ENDBRANCH 110 113
ENDBRANCH 103 110
BRANCH 108 120
ATOM    120  C   UNL     1     -18.609   9.192  29.794  0.00  0.00    +0.000 C 
ATOM    121  C   UNL     1     -19.605  10.327  29.505  0.00  0.00    +0.000 C 
ATOM    122  C   UNL     1     -18.057   9.487  31.141  0.00  0.00    +0.000 C 
BRANCH 120 123
ATOM    123  C   UNL     1     -19.524   7.849  29.685  0.00  0.00    +0.000 C 
ATOM    124  C   UNL     1     -20.963   8.117  29.691  0.00  0.00    +0.000 C 
ATOM    125  C   UNL     1     -19.261   7.130  28.385  0.00  0.00    +0.000 C 
BRANCH 123 126
ATOM    126  C   UNL     1     -19.336   6.838  30.869  0.00  0.00    +0.000 C 
ATOM    127  C   UNL     1     -20.342   7.159  31.919  0.00  0.00    +0.000 C 
ATOM    128  C   UNL     1     -17.995   7.018  31.525  0.00  0.00    +0.000 C 
ATOM    129  C   UNL     1     -19.390   5.440  30.379  0.00  0.00    +0.000 C 
ENDBRANCH 123 126
ENDBRANCH 120 123
ENDBRANCH 108 120
BRANCH 106 130
ATOM    130  O   UNL     1     -16.970  10.333  24.362  0.00  0.00    +0.000 OA
BRANCH 130 131
ATOM    131  C   UNL     1     -16.488   9.165  23.654  0.00  0.00    +0.000 C 
BRANCH 131 132
ATOM    132  C   UNL     1     -16.163   9.603  22.237  0.00  0.00    +0.000 C 
BRANCH 132 133
ATOM    133  O   UNL     1     -16.946   8.907  21.331  0.00  0.00    +0.000 OA
BRANCH 133 134
ATOM    134  C   UNL     1     -17.067   9.560  20.077  0.00  0.00    +0.000 C 
BRANCH 134 135
ATOM    135  C   UNL     1     -18.492   9.560  19.646  0.00  0.00    +0.000 C 
BRANCH 135 136
ATOM    136  O   UNL     1     -18.452   9.561  18.500  0.00  0.00    +0.000 OA
BRANCH 136 137
ATOM    137  C   UNL     1     -19.651   9.931  17.916  0.00  0.00    +0.000 C 
BRANCH 137 138
ATOM    138  C   UNL     1     -20.688  10.511  18.938  0.00  0.00    +0.000 C 
BRANCH 138 139
ATOM    139  O   UNL     1     -21.924  10.245  18.457  0.00  0.00    +0.000 OA
BRANCH 139 140
ATOM    140  C   UNL     1     -22.006   8.953  17.816  0.00  0.00    +0.000 C 
BRANCH 140 141
ATOM    141  C   UNL     1     -22.944   8.080  18.589  0.00  0.00    +0.000 C 
BRANCH 141 142
ATOM    142  O   UNL     1     -22.714   6.726  18.265  0.00  0.00    +0.000 OA
BRANCH 142 143
ATOM    143  C   UNL     1     -23.681   6.189  17.367  0.00  0.00    +0.000 C 
BRANCH 143 144
ATOM    144  C   UNL     1     -24.872   5.601  18.170  0.00  0.00    +0.000 C 
BRANCH 144 145
ATOM    145  O   UNL     1     -25.254   4.306  17.679  0.00  0.00    +0.000 OA
BRANCH 145 146
ATOM    146  C   UNL     1     -24.268   3.498  17.020  0.00  0.00    +0.000 C 
BRANCH 146 147
ATOM    147  C   UNL     1     -23.704   2.430  17.923  0.00  0.00    +0.000 C 
BRANCH 147 148
ATOM    148  O   UNL     1     -22.433   2.895  18.415  0.00  0.00    +0.000 OA
BRANCH 148 149
ATOM    149  C   UNL     1     -22.249   2.788  19.817  0.00  0.00    +0.000 C 
BRANCH 149 150
ATOM    150  C   UNL     1     -23.588   2.586  20.494  0.00  0.00    +0.000 C 
BRANCH 150 151
ATOM    151  O   UNL     1     -23.355   2.294  21.878  0.00  0.00    +0.000 OA
BRANCH 151 152
ATOM    152  C   UNL     1     -22.730   1.089  22.155  0.00  0.00    +0.000 C 
BRANCH 152 153
ATOM    153  C   UNL     1     -23.484   0.300  23.210  0.00  0.00    +0.000 C 
BRANCH 153 154
ATOM    154  O   UNL     1     -23.086  -1.069  23.149  0.00  0.00    +0.000 OA
BRANCH 154 155
ATOM    155  C   UNL     1     -23.407  -1.707  21.946  0.00  0.00    +0.000 C 
BRANCH 155 156
ATOM    156  C   UNL     1     -23.326  -3.245  22.117  0.00  0.00    +0.000 C 
BRANCH 156 157
ATOM    157  O   UNL     1     -23.056  -3.504  23.498  0.00  0.00    +0.000 OA
BRANCH 157 158
ATOM    158  C   UNL     1     -23.711  -4.648  23.978  0.00  0.00    +0.000 C 
BRANCH 158 160
ATOM    159  O   UNL     1     -24.394  -2.878  25.565  0.00  0.00    +0.000 OA
ATOM    160  C   UNL     1     -24.812  -4.139  24.801  0.00  0.00    +0.000 C 
ENDBRANCH 158 160
ENDBRANCH 157 158
ENDBRANCH 156 157
ENDBRANCH 155 156
ENDBRANCH 154 155
ENDBRANCH 153 154
ENDBRANCH 152 153
ENDBRANCH 151 152
ENDBRANCH 150 151
ENDBRANCH 149 150
ENDBRANCH 148 149
ENDBRANCH 147 148
ENDBRANCH 146 147
ENDBRANCH 145 146
ENDBRANCH 144 145
ENDBRANCH 143 144
ENDBRANCH 142 143
ENDBRANCH 141 142
ENDBRANCH 140 141
ENDBRANCH 139 140
ENDBRANCH 138 139
ENDBRANCH 137 138
ENDBRANCH 136 137
ENDBRANCH 135 136
ENDBRANCH 134 135
ENDBRANCH 133 134
ENDBRANCH 132 133
ENDBRANCH 131 132
ENDBRANCH 130 131
ENDBRANCH 106 130
BRANCH  99 161
ATOM    161  O   UNL     1     -15.727  12.333  27.235  0.00  0.00    +0.000 OA
BRANCH 161 162
ATOM    162  C   UNL     1     -16.556  13.297  27.894  0.00  0.00    +0.000 C 
BRANCH 162 163
ATOM    163  C   UNL     1     -16.324  14.746  27.495  0.00  0.00    +0.000 C 
BRANCH 163 164
ATOM    164  O   UNL     1     -15.223  14.848  26.644  0.00  0.00    +0.000 OA
BRANCH 164 165
ATOM    165  C   UNL     1     -15.509  15.281  25.341  0.00  0.00    +0.000 C 
BRANCH 165 166
ATOM    166  C   UNL     1     -14.707  14.534  24.271  0.00  0.00    +0.000 C 
BRANCH 166 167
ATOM    167  O   UNL     1     -15.551  13.517  23.675  0.00  0.00    +0.000 OA
BRANCH 167 168
ATOM    168  C   UNL     1     -16.911  13.753  23.972  0.00  0.00    +0.000 C 
BRANCH 168 169
ATOM    169  C   UNL     1     -17.742  13.812  22.698  0.00  0.00    +0.000 C 
BRANCH 169 170
ATOM    170  O   UNL     1     -17.475  14.990  22.002  0.00  0.00    +0.000 OA
BRANCH 170 171
ATOM    171  C   UNL     1     -18.596  15.503  21.308  0.00  0.00    +0.000 C 
BRANCH 171 172
ATOM    172  C   UNL     1     -18.195  16.683  20.367  0.00  0.00    +0.000 C 
BRANCH 172 173
ATOM    173  O   UNL     1     -18.712  16.389  19.080  0.00  0.00    +0.000 OA
BRANCH 173 174
ATOM    174  C   UNL     1     -17.742  16.763  18.053  0.00  0.00    +0.000 C 
BRANCH 174 175
ATOM    175  C   UNL     1     -16.334  16.725  18.645  0.00  0.00    +0.000 C 
BRANCH 175 176
ATOM    176  O   UNL     1     -15.444  17.154  17.666  0.00  0.00    +0.000 OA
BRANCH 176 177
ATOM    177  C   UNL     1     -15.849  16.771  16.362  0.00  0.00    +0.000 C 
BRANCH 177 178
ATOM    178  C   UNL     1     -15.229  17.773  15.397  0.00  0.00    +0.000 C 
BRANCH 178 179
ATOM    179  O   UNL     1     -15.108  17.185  14.114  0.00  0.00    +0.000 OA
BRANCH 179 180
ATOM    180  C   UNL     1     -13.905  17.598  13.413  0.00  0.00    +0.000 C 
BRANCH 180 181
ATOM    181  C   UNL     1     -13.379  16.442  12.562  0.00  0.00    +0.000 C 
BRANCH 181 182
ATOM    182  O   UNL     1     -12.150  15.988  13.059  0.00  0.00    +0.000 OA
BRANCH 182 183
ATOM    183  C   UNL     1     -11.762  16.667  14.304  0.00  0.00    +0.000 C 
BRANCH 183 184
ATOM    184  C   UNL     1     -10.260  16.629  14.585  0.00  0.00    +0.000 C 
BRANCH 184 185
ATOM    185  O   UNL     1      -9.626  16.993  13.402  0.00  0.00    +0.000 OA
BRANCH 185 186
ATOM    186  C   UNL     1      -8.278  17.450  13.613  0.00  0.00    +0.000 C 
BRANCH 186 187
ATOM    187  C   UNL     1      -7.604  17.744  12.291  0.00  0.00    +0.000 C 
BRANCH 187 188
ATOM    188  O   UNL     1      -8.694  18.167  11.370  0.00  0.00    +0.000 OA
BRANCH 188 189
ATOM    189  C   UNL     1      -8.738  19.607  11.288  0.00  0.00    +0.000 C 
BRANCH 189 191
ATOM    190  O   UNL     1      -9.795  18.793   9.332  0.00  0.00    +0.000 OA
ATOM    191  C   UNL     1      -9.368  19.956   9.959  0.00  0.00    +0.000 C 
ENDBRANCH 189 191
ENDBRANCH 188 189
ENDBRANCH 187 188
ENDBRANCH 186 187
ENDBRANCH 185 186
ENDBRANCH 184 185
ENDBRANCH 183 184
ENDBRANCH 182 183
ENDBRANCH 181 182
ENDBRANCH 180 181
ENDBRANCH 179 180
ENDBRANCH 178 179
ENDBRANCH 177 178
ENDBRANCH 176 177
ENDBRANCH 175 176
ENDBRANCH 174 175
ENDBRANCH 173 174
ENDBRANCH 172 173
ENDBRANCH 171 172
ENDBRANCH 170 171
ENDBRANCH 169 170
ENDBRANCH 168 169
ENDBRANCH 167 168
ENDBRANCH 166 167
ENDBRANCH 165 166
ENDBRANCH 164 165
ENDBRANCH 163 164
ENDBRANCH 162 163
ENDBRANCH 161 162
ENDBRANCH  99 161
ENDBRANCH  97  98
BRANCH  97 192
ATOM    192  C   UNL     1     -12.987  10.871  30.337  0.00  0.00    +0.000 C 
BRANCH 192 193
ATOM    193  C   UNL     1     -12.997   9.804  31.307  0.00  0.00    +0.000 C 
ATOM    194  C   UNL     1     -13.101   8.408  30.910  0.00  0.00    +0.000 C 
BRANCH 193 195
ATOM    195  C   UNL     1     -12.924  10.068  32.757  0.00  0.00    +0.000 C 
ATOM    196  C   UNL     1     -12.071   8.943  33.367  0.00  0.00    +0.000 C 
ATOM    197  C   UNL     1     -12.191  11.382  33.053  0.00  0.00    +0.000 C 
BRANCH 195 198
ATOM    198  C   UNL     1     -14.406  10.090  33.400  0.00  0.00    +0.000 C 
ATOM    199  C   UNL     1     -15.103   8.815  33.207  0.00  0.00    +0.000 C 
ATOM    200  C   UNL     1     -15.215  11.199  32.810  0.00  0.00    +0.000 C 
BRANCH 198 201
ATOM    201  C   UNL     1     -14.547  10.366  34.944  0.00  0.00    +0.000 C 
ATOM    202  C   UNL     1     -13.960   9.280  35.794  0.00  0.00    +0.000 C 
ATOM    203  C   UNL     1     -15.983  10.472  35.382  0.00  0.00    +0.000 C 
ATOM    204  C   UNL     1     -13.794  11.556  35.309  0.00  0.00    +0.000 C 
ENDBRANCH 198 201
ENDBRANCH 195 198
ENDBRANCH 193 195
ENDBRANCH 192 193
ENDBRANCH  97 192
ENDBRANCH   1  97
BRANCH   1 205
ATOM    205  O   UNL     1     -12.898  12.320  27.476  0.00  0.00    +0.000 OA
BRANCH 205 206
ATOM    206  C   UNL     1     -12.347  13.372  28.236  0.00  0.00    +0.000 C 
BRANCH 206 207
ATOM    207  C   UNL     1     -12.349  14.668  27.477  0.00  0.00    +0.000 C 
BRANCH 207 208
ATOM    208  O   UNL     1     -11.103  14.878  26.804  0.00  0.00    +0.000 OA
BRANCH 208 209
ATOM    209  C   UNL     1      -9.959  14.437  27.566  0.00  0.00    +0.000 C 
BRANCH 209 210
ATOM    210  C   UNL     1      -8.677  14.799  26.859  0.00  0.00    +0.000 C 
BRANCH 210 211
ATOM    211  C   UNL     1      -7.568  15.246  27.812  0.00  0.00    +0.000 C 
BRANCH 211 212
ATOM    212  C   UNL     1      -6.734  16.353  27.205  0.00  0.00    +0.000 C 
BRANCH 212 213
ATOM    213  C   UNL     1      -6.413  17.399  28.221  0.00  0.00    +0.000 C 
BRANCH 213 214
ATOM    214  O   UNL     1      -5.712  18.424  27.686  0.00  0.00    +0.000 OA
BRANCH 214 215
ATOM    215  C   UNL     1      -4.557  17.963  26.929  0.00  0.00    +0.000 C 
BRANCH 215 216
ATOM    216  C   UNL     1      -4.382  18.711  25.625  0.00  0.00    +0.000 C 
BRANCH 216 217
ATOM    217  O   UNL     1      -5.071  18.094  24.632  0.00  0.00    +0.000 OA
BRANCH 217 218
ATOM    218  C   UNL     1      -6.116  18.549  23.669  0.00  0.00    +0.000 C 
BRANCH 218 219
ATOM    219  C   UNL     1      -7.113  19.408  24.518  0.00  0.00    +0.000 C 
BRANCH 219 220
ATOM    220  O   UNL     1      -7.978  18.597  25.221  0.00  0.00    +0.000 OA
BRANCH 220 221
ATOM    221  C   UNL     1      -9.023  19.261  25.953  0.00  0.00    +0.000 C 
BRANCH 221 222
ATOM    222  C   UNL     1     -10.023  18.218  26.448  0.00  0.00    +0.000 C 
BRANCH 222 223
ATOM    223  O   UNL     1      -9.894  17.992  27.829  0.00  0.00    +0.000 OA
BRANCH 223 224
ATOM    224  C   UNL     1     -11.104  18.110  28.554  0.00  0.00    +0.000 C 
BRANCH 224 225
ATOM    225  C   UNL     1     -10.922  17.356  29.875  0.00  0.00    +0.000 C 
BRANCH 225 226
ATOM    226  O   UNL     1      -9.582  16.890  30.014  0.00  0.00    +0.000 OA
BRANCH 226 227
ATOM    227  C   UNL     1      -9.197  16.688  31.361  0.00  0.00    +0.000 C 
BRANCH 227 228
ATOM    228  C   UNL     1      -8.198  15.560  31.409  0.00  0.00    +0.000 C 
BRANCH 228 229
ATOM    229  O   UNL     1      -8.713  14.366  30.886  0.00  0.00    +0.000 OA
BRANCH 229 230
ATOM    230  C   UNL     1      -9.196  13.503  31.880  0.00  0.00    +0.000 C 
BRANCH 230 231
ATOM    231  C   UNL     1      -8.179  13.331  32.968  0.00  0.00    +0.000 C 
BRANCH 231 232
ATOM    232  O   UNL     1      -8.361  12.074  33.573  0.00  0.00    +0.000 OA
BRANCH 232 233
ATOM    233  C   UNL     1      -7.831  12.000  34.876  0.00  0.00    +0.000 C 
BRANCH 233 234
ATOM    234  C   UNL     1      -7.374  10.589  35.177  0.00  0.00    +0.000 C 
ATOM    235  O   UNL     1      -7.128   9.917  33.962  0.00  0.00    +0.000 OA
ENDBRANCH 233 234
ENDBRANCH 232 233
ENDBRANCH 231 232
ENDBRANCH 230 231
ENDBRANCH 229 230
ENDBRANCH 228 229
ENDBRANCH 227 228
ENDBRANCH 226 227
ENDBRANCH 225 226
ENDBRANCH 224 225
ENDBRANCH 223 224
ENDBRANCH 222 223
ENDBRANCH 221 222
ENDBRANCH 220 221
ENDBRANCH 219 220
ENDBRANCH 218 219
ENDBRANCH 217 218
ENDBRANCH 216 217
ENDBRANCH 215 216
ENDBRANCH 214 215
ENDBRANCH 213 214
ENDBRANCH 212 213
ENDBRANCH 211 212
ENDBRANCH 210 211
ENDBRANCH 209 210
ENDBRANCH 208 209
ENDBRANCH 207 208
ENDBRANCH 206 207
ENDBRANCH 205 206
ENDBRANCH   1 205
TORSDOF 175
BEGIN_RES LEU A  10
REMARK  2 active torsions:
REMARK  status: ('A' for Active; 'I' for Inactive)
REMARK    1  A    between atoms: CA   and  CB  
REMARK    2  A    between atoms: CB   and  CG  
ROOT
ATOM      1  CA  LEU A  10     -10.775  -4.871   5.898  1.00 25.14     0.177 C 
ENDROOT
BRANCH   1   2
ATOM      2  CB  LEU A  10     -12.191  -4.387   6.226  1.00 17.87     0.038 C 
BRANCH   2   3
ATOM      3  CG  LEU A  10     -12.427  -2.898   5.966  1.00 24.95    -0.020 C 
ATOM      4  CD2 LEU A  10     -13.718  -2.493   6.592  1.00 26.38     0.009 C 
ATOM      5  CD1 LEU A  10     -12.439  -2.602   4.476  1.00 28.12     0.009 C 
ENDBRANCH   2   3
ENDBRANCH   1   2
END_RES LEU A  10
BEGIN_RES CYS A  12
REMARK  2 active torsions:
REMARK  status: ('A' for Active; 'I' for Inactive)
REMARK    3  A    between atoms: CA   and  CB  
REMARK    4  A    between atoms: CB   and  SG  
ROOT
ATOM      6  CA  CYS A  12      -8.555   0.470   8.750  1.00 23.16     0.185 C 
ENDROOT
BRANCH   6   7
ATOM      7  CB  CYS A  12      -9.828   0.763   9.555  1.00 20.43     0.105 C 
BRANCH   7   8
ATOM      8  SG  CYS A  12     -11.254  -0.314   9.216  1.00 24.64    -0.180 SA
ATOM      9  H04 CYS A  12     -11.244  -0.679   7.927  1.00 24.64     0.101 HD
ENDBRANCH   7   8
ENDBRANCH   6   7
END_RES CYS A  12
BEGIN_RES GLN A  14
REMARK  3 active torsions:
REMARK  status: ('A' for Active; 'I' for Inactive)
REMARK    5  A    between atoms: CA   and  CB  
REMARK    6  A    between atoms: CB   and  CG  
REMARK    7  A    between atoms: CG   and  CD  
REMARK       I    between atoms: CD   and  NE2 
ROOT
ATOM     10  CA  GLN A  14      -4.645   5.402  11.377  1.00 10.43     0.177 C 
ENDROOT
BRANCH  10  11
ATOM     11  CB  GLN A  14      -5.541   5.549  12.608  1.00 14.45     0.044 C 
BRANCH  11  12
ATOM     12  CG  GLN A  14      -6.736   6.449  12.397  1.00 13.74     0.105 C 
BRANCH  12  13
ATOM     13  CD  GLN A  14      -6.482   7.864  12.860  1.00 16.29     0.215 C 
ATOM     14  NE2 GLN A  14      -6.033   8.706  11.955  1.00  8.57    -0.370 N 
ATOM     15  H06 GLN A  14      -5.847   9.666  12.207  1.00  8.57     0.159 HD
ATOM     16  H07 GLN A  14      -5.875   8.392  11.008  1.00  8.57     0.159 HD
ATOM     17  OE1 GLN A  14      -6.691   8.195  14.017  1.00 23.55    -0.274 OA
ENDBRANCH  12  13
ENDBRANCH  11  12
ENDBRANCH  10  11
END_RES GLN A  14
BEGIN_RES SER A  16
REMARK  2 active torsions:
REMARK  status: ('A' for Active; 'I' for Inactive)
REMARK    8  A    between atoms: CA   and  CB  
REMARK    9  A    between atoms: CB   and  OG  
ROOT
ATOM     18  CA  SER A  16      -1.305  10.019  14.282  1.00  2.34     0.200 C 
ENDROOT
BRANCH  18  19
ATOM     19  CB  SER A  16      -2.242   9.935  15.479  1.00  3.12     0.199 C 
BRANCH  19  20
ATOM     20  OG  SER A  16      -1.863   8.865  16.327  1.00  1.00    -0.398 OA
ATOM     21  H04 SER A  16      -1.550   8.130  15.795  1.00  1.00     0.209 HD
ENDBRANCH  19  20
ENDBRANCH  18  19
END_RES SER A  16
BEGIN_RES LEU A  32
REMARK  2 active torsions:
REMARK  status: ('A' for Active; 'I' for Inactive)
REMARK   10  A    between atoms: CA   and  CB  
REMARK   11  A    between atoms: CB   and  CG  
ROOT
ATOM     22  CA  LEU A  32     -10.272  -4.106   1.587  1.00 16.16     0.177 C 
ENDROOT
BRANCH  22  23
ATOM     23  CB  LEU A  32     -11.613  -3.858   0.880  1.00 12.35     0.038 C 
BRANCH  23  24
ATOM     24  CG  LEU A  32     -12.534  -5.094   0.945  1.00  9.77    -0.020 C 
ATOM     25  CD1 LEU A  32     -12.940  -5.371   2.373  1.00  4.35     0.009 C 
ATOM     26  CD2 LEU A  32     -13.762  -4.893   0.097  1.00 10.60     0.009 C 
ENDBRANCH  23  24
ENDBRANCH  22  23
END_RES LEU A  32
BEGIN_RES HIS A  38
REMARK  2 active torsions:
REMARK  status: ('A' for Active; 'I' for Inactive)
REMARK   12  A    between atoms: CA   and  CB  
REMARK   13  A    between atoms: CB   and  CG  
ROOT
ATOM     27  CA  HIS A  38     -10.959   4.941   1.621  1.00 16.94     0.182 C 
ENDROOT
BRANCH  27  28
ATOM     28  CB  HIS A  38     -11.810   4.840   2.881  1.00 15.47     0.095 C 
BRANCH  28  29
ATOM     29  CG  HIS A  38     -13.273   5.023   2.638  1.00 18.62     0.053 A 
ATOM     30  CD2 HIS A  38     -13.950   5.386   1.522  1.00 15.06     0.116 A 
ATOM     31  NE2 HIS A  38     -15.284   5.372   1.838  1.00 18.12    -0.359 N 
ATOM     32  CE1 HIS A  38     -15.424   5.014   3.100  1.00 14.78     0.207 A 
ATOM     33  H06 HIS A  38     -16.039   5.598   1.206  1.00 18.12     0.166 HD
ATOM     34  ND1 HIS A  38     -14.226   4.799   3.607  1.00 16.58    -0.247 NA
ENDBRANCH  28  29
ENDBRANCH  27  28
END_RES HIS A  38
BEGIN_RES TRP A  63
REMARK  2 active torsions:
REMARK  status: ('A' for Active; 'I' for Inactive)
REMARK   14  A    between atoms: CA   and  CB  
REMARK   15  A    between atoms: CB   and  CG  
ROOT
ATOM     35  CA  TRP A  63     -22.437   6.257   6.543  1.00 27.04     0.181 C 
ENDROOT
BRANCH  35  36
ATOM     36  CB  TRP A  63     -22.360   6.642   5.068  1.00 31.37     0.075 C 
BRANCH  36  37
ATOM     37  CG  TRP A  63     -20.968   6.588   4.475  1.00 34.37    -0.028 A 
ATOM     38  CD2 TRP A  63     -20.264   7.649   3.815  1.00 33.79    -0.002 A 
ATOM     39  CE3 TRP A  63     -20.590   8.960   3.462  1.00 32.99     0.014 A 
ATOM     40  CE2 TRP A  63     -18.978   7.161   3.496  1.00 35.84     0.042 A 
ATOM     41  CZ3 TRP A  63     -19.639   9.733   2.812  1.00 32.93     0.001 A 
ATOM     42  CH2 TRP A  63     -18.368   9.219   2.508  1.00 39.24     0.002 A 
ATOM     43  CZ2 TRP A  63     -18.020   7.938   2.843  1.00 37.99     0.030 A 
ATOM     44  NE1 TRP A  63     -18.910   5.870   3.941  1.00 37.98    -0.365 N 
ATOM     45  H06 TRP A  63     -18.109   5.260   3.855  1.00 37.98     0.165 HD
ATOM     46  CD1 TRP A  63     -20.108   5.536   4.525  1.00 38.16     0.096 A 
ENDBRANCH  36  37
ENDBRANCH  35  36
END_RES TRP A  63
BEGIN_RES LEU A  66
REMARK  2 active torsions:
REMARK  status: ('A' for Active; 'I' for Inactive)
REMARK   16  A    between atoms: CA   and  CB  
REMARK   17  A    between atoms: CB   and  CG  
ROOT
ATOM     47  CA  LEU A  66     -20.004   6.489  11.120  1.00 10.90     0.177 C 
ENDROOT
BRANCH  47  48
ATOM     48  CB  LEU A  66     -19.626   5.453  10.069  1.00 13.57     0.038 C 
BRANCH  48  49
ATOM     49  CG  LEU A  66     -19.805   3.982  10.441  1.00  8.73    -0.020 C 
ATOM     50  CD1 LEU A  66     -21.225   3.541  10.200  1.00 14.23     0.009 C 
ATOM     51  CD2 LEU A  66     -18.859   3.159   9.604  1.00  1.92     0.009 C 
ENDBRANCH  48  49
ENDBRANCH  47  48
END_RES LEU A  66
BEGIN_RES PHE A  70
REMARK  2 active torsions:
REMARK  status: ('A' for Active; 'I' for Inactive)
REMARK   18  A    between atoms: CA   and  CB  
REMARK   19  A    between atoms: CB   and  CG  
ROOT
ATOM     52  CA  PHE A  70     -14.974   9.434  13.165  1.00  8.78     0.180 C 
ENDROOT
BRANCH  52  53
ATOM     53  CB  PHE A  70     -14.707   9.132  11.681  1.00  6.33     0.073 C 
BRANCH  53  54
ATOM     54  CG  PHE A  70     -13.927   7.865  11.459  1.00  3.42    -0.056 A 
ATOM     55  CD1 PHE A  70     -13.492   7.096  12.528  1.00 13.88     0.007 A 
ATOM     56  CE1 PHE A  70     -12.724   5.938  12.315  1.00 12.71     0.001 A 
ATOM     57  CZ  PHE A  70     -12.389   5.546  11.019  1.00  4.21     0.000 A 
ATOM     58  CE2 PHE A  70     -12.819   6.303   9.945  1.00  2.83     0.001 A 
ATOM     59  CD2 PHE A  70     -13.586   7.459  10.168  1.00  1.00     0.007 A 
ENDBRANCH  53  54
ENDBRANCH  52  53
END_RES PHE A  70
BEGIN_RES TYR A  73
REMARK  3 active torsions:
REMARK  status: ('A' for Active; 'I' for Inactive)
REMARK   20  A    between atoms: CA   and  CB  
REMARK   21  A    between atoms: CB   and  CG  
REMARK   22  A    between atoms: CZ   and  OH  
ROOT
ATOM     60  CA  TYR A  73     -13.212  10.166  17.260  1.00 12.17     0.180 C 
ENDROOT
BRANCH  60  61
ATOM     61  CB  TYR A  73     -13.301   8.846  16.517  1.00 12.84     0.073 C 
BRANCH  61  62
ATOM     62  CG  TYR A  73     -11.978   8.188  16.336  1.00 15.89    -0.056 A 
ATOM     63  CD1 TYR A  73     -11.415   8.053  15.086  1.00 16.00     0.010 A 
ATOM     64  CE1 TYR A  73     -10.191   7.410  14.911  1.00 13.55     0.037 A 
ATOM     65  CZ  TYR A  73      -9.532   6.898  16.011  1.00 18.13     0.065 A 
ATOM     66  CE2 TYR A  73     -10.071   7.020  17.270  1.00 15.89     0.037 A 
ATOM     67  CD2 TYR A  73     -11.292   7.665  17.427  1.00 21.86     0.010 A 
BRANCH  65  68
ATOM     68  OH  TYR A  73      -8.322   6.265  15.863  1.00 12.12    -0.361 OA
ATOM     69  H08 TYR A  73      -8.375   5.381  16.234  1.00 12.12     0.217 HD
ENDBRANCH  65  68
ENDBRANCH  61  62
ENDBRANCH  60  61
END_RES TYR A  73
BEGIN_RES PHE A  77
REMARK  2 active torsions:
REMARK  status: ('A' for Active; 'I' for Inactive)
REMARK   23  A    between atoms: CA   and  CB  
REMARK   24  A    between atoms: CB   and  CG  
ROOT
ATOM     70  CA  PHE A  77      -8.400  10.581  20.110  1.00 17.17     0.180 C 
ENDROOT
BRANCH  70  71
ATOM     71  CB  PHE A  77      -8.228   9.750  18.851  1.00 10.44     0.073 C 
BRANCH  71  72
ATOM     72  CG  PHE A  77      -6.857   9.172  18.693  1.00  6.07    -0.056 A 
ATOM     73  CD2 PHE A  77      -5.912   9.811  17.923  1.00  9.61     0.007 A 
ATOM     74  CE2 PHE A  77      -4.636   9.282  17.772  1.00  1.00     0.001 A 
ATOM     75  CZ  PHE A  77      -4.300   8.097  18.404  1.00  1.92     0.000 A 
ATOM     76  CE1 PHE A  77      -5.233   7.445  19.179  1.00  9.25     0.001 A 
ATOM     77  CD1 PHE A  77      -6.510   7.986  19.320  1.00  9.63     0.007 A 
ENDBRANCH  71  72
ENDBRANCH  70  71
END_RES PHE A  77
BEGIN_RES LEU A  96
REMARK  2 active torsions:
REMARK  status: ('A' for Active; 'I' for Inactive)
REMARK   25  A    between atoms: CA   and  CB  
REMARK   26  A    between atoms: CB   and  CG  
ROOT
ATOM     78  CA  LEU A  96       0.717   6.481  17.359  1.00 16.08     0.177 C 
ENDROOT
BRANCH  78  79
ATOM     79  CB  LEU A  96      -0.370   7.101  18.230  1.00 18.83     0.038 C 
BRANCH  79  80
ATOM     80  CG  LEU A  96      -0.123   6.983  19.734  1.00 19.03    -0.020 C 
ATOM     81  CD1 LEU A  96       0.330   5.576  20.045  1.00 28.17     0.009 C 
ATOM     82  CD2 LEU A  96       0.963   7.942  20.166  1.00 22.01     0.009 C 
ENDBRANCH  79  80
ENDBRANCH  78  79
END_RES LEU A  96
BEGIN_RES VAL A  98
REMARK  1 active torsions:
REMARK  status: ('A' for Active; 'I' for Inactive)
REMARK   27  A    between atoms: CA   and  CB  
ROOT
ATOM     83  CA  VAL A  98      -3.928   2.082  14.897  1.00 19.83     0.180 C 
ENDROOT
BRANCH  83  84
ATOM     84  CB  VAL A  98      -5.203   2.807  15.281  1.00 17.87     0.009 C 
ATOM     85  CG2 VAL A  98      -6.067   3.013  14.064  1.00 29.90     0.012 C 
ATOM     86  CG1 VAL A  98      -4.857   4.133  15.926  1.00 14.79     0.012 C 
ENDBRANCH  83  84
END_RES VAL A  98
BEGIN_RES ASN A 112
REMARK  2 active torsions:
REMARK  status: ('A' for Active; 'I' for Inactive)
REMARK   28  A    between atoms: CA   and  CB  
REMARK   29  A    between atoms: CB   and  CG  
REMARK       I    between atoms: CG   and  ND2 
ROOT
ATOM     87  CA  ASN A 112     -11.790  -8.793  14.069  1.00 37.70     0.185 C 
ENDROOT
BRANCH  87  88
ATOM     88  CB  ASN A 112     -12.992  -7.945  14.465  1.00 26.24     0.137 C 
BRANCH  88  89
ATOM     89  CG  ASN A 112     -13.789  -8.542  15.603  1.00 21.77     0.217 C 
ATOM     90  ND2 ASN A 112     -14.920  -9.162  15.267  1.00  9.31    -0.370 N 
ATOM     91  H04 ASN A 112     -15.498  -9.580  15.983  1.00  9.31     0.159 HD
ATOM     92  H05 ASN A 112     -15.198  -9.215  14.298  1.00  9.31     0.159 HD
ATOM     93  OD1 ASN A 112     -13.399  -8.444  16.773  1.00 21.61    -0.274 OA
ENDBRANCH  88  89
ENDBRANCH  87  88
END_RES ASN A 112
BEGIN_RES PHE A 114
REMARK  2 active torsions:
REMARK  status: ('A' for Active; 'I' for Inactive)
REMARK   30  A    between atoms: CA   and  CB  
REMARK   31  A    between atoms: CB   and  CG  
ROOT
ATOM     94  CA  PHE A 114      -7.754  -3.619  17.012  1.00 26.06     0.180 C 
ENDROOT
BRANCH  94  95
ATOM     95  CB  PHE A 114      -8.890  -3.080  17.867  1.00 19.95     0.073 C 
BRANCH  95  96
ATOM     96  CG  PHE A 114      -8.718  -1.644  18.244  1.00 17.65    -0.056 A 
ATOM     97  CD1 PHE A 114      -9.037  -1.200  19.525  1.00 13.01     0.007 A 
ATOM     98  CE1 PHE A 114      -8.905   0.139  19.867  1.00  6.74     0.001 A 
ATOM     99  CZ  PHE A 114      -8.445   1.057  18.928  1.00  6.27     0.000 A 
ATOM    100  CE2 PHE A 114      -8.123   0.626  17.651  1.00 17.36     0.001 A 
ATOM    101  CD2 PHE A 114      -8.260  -0.724  17.312  1.00 18.39     0.007 A 
ENDBRANCH  95  96
ENDBRANCH  94  95
END_RES PHE A 114
BEGIN_RES VAL A 116
REMARK  1 active torsions:
REMARK  status: ('A' for Active; 'I' for Inactive)
REMARK   32  A    between atoms: CA   and  CB  
ROOT
ATOM    102  CA  VAL A 116      -2.467   0.283  18.565  1.00 13.48     0.180 C 
ENDROOT
BRANCH 102 103
ATOM    103  CB  VAL A 116      -3.101   1.238  19.599  1.00 20.86     0.009 C 
ATOM    104  CG1 VAL A 116      -3.064   2.671  19.062  1.00 25.01     0.012 C 
ATOM    105  CG2 VAL A 116      -4.509   0.807  19.938  1.00 25.34     0.012 C 
ENDBRANCH 102 103
END_RES VAL A 116
BEGIN_RES ILE A 123
REMARK  2 active torsions:
REMARK  status: ('A' for Active; 'I' for Inactive)
REMARK   33  A    between atoms: CA   and  CB  
REMARK   34  A    between atoms: CB   and  CG1 
ROOT
ATOM    106  CA  ILE A 123       1.557  -1.626  23.222  1.00 15.07     0.180 C 
ENDROOT
BRANCH 106 107
ATOM    107  CB  ILE A 123       1.697  -0.112  23.461  1.00 14.41     0.013 C 
ATOM    108  CG2 ILE A 123       3.096   0.206  23.959  1.00 18.35     0.012 C 
BRANCH 107 109
ATOM    109  CG1 ILE A 123       1.407   0.657  22.174  1.00 15.23     0.002 C 
ATOM    110  CD1 ILE A 123       0.188   1.543  22.259  1.00 14.67     0.005 C 
ENDBRANCH 107 109
ENDBRANCH 106 107
END_RES ILE A 123
BEGIN_RES LEU A 124
REMARK  2 active torsions:
REMARK  status: ('A' for Active; 'I' for Inactive)
REMARK   35  A    between atoms: CA   and  CB  
REMARK   36  A    between atoms: CB   and  CG  
ROOT
ATOM    111  CA  LEU A 124      -2.057  -2.686  23.524  1.00 11.86     0.177 C 
ENDROOT
BRANCH 111 112
ATOM    112  CB  LEU A 124      -2.698  -1.652  24.429  1.00 14.60     0.038 C 
BRANCH 112 113
ATOM    113  CG  LEU A 124      -2.695  -0.265  23.804  1.00 16.19    -0.020 C 
ATOM    114  CD1 LEU A 124      -4.140   0.123  23.436  1.00 22.07     0.009 C 
ATOM    115  CD2 LEU A 124      -2.076   0.718  24.766  1.00  9.12     0.009 C 
ENDBRANCH 112 113
ENDBRANCH 111 112
END_RES LEU A 124
BEGIN_RES PHE A 126
REMARK  2 active torsions:
REMARK  status: ('A' for Active; 'I' for Inactive)
REMARK   37  A    between atoms: CA   and  CB  
REMARK   38  A    between atoms: CB   and  CG  
ROOT
ATOM    116  CA  PHE A 126      -8.784  -4.792  22.233  1.00 23.15     0.180 C 
ENDROOT
BRANCH 116 117
ATOM    117  CB  PHE A 126      -9.823  -4.011  21.461  1.00 20.65     0.073 C 
BRANCH 117 118
ATOM    118  CG  PHE A 126     -10.944  -3.534  22.298  1.00 23.65    -0.056 A 
ATOM    119  CD2 PHE A 126     -10.788  -2.440  23.131  1.00 36.63     0.007 A 
ATOM    120  CE2 PHE A 126     -11.852  -1.988  23.923  1.00 36.27     0.001 A 
ATOM    121  CZ  PHE A 126     -13.075  -2.641  23.877  1.00 18.06     0.000 A 
ATOM    122  CE1 PHE A 126     -13.235  -3.732  23.046  1.00  5.50     0.001 A 
ATOM    123  CD1 PHE A 126     -12.172  -4.173  22.259  1.00 15.29     0.007 A 
ENDBRANCH 117 118
ENDBRANCH 116 117
END_RES PHE A 126
BEGIN_RES TRP A 131
REMARK  2 active torsions:
REMARK  status: ('A' for Active; 'I' for Inactive)
REMARK   39  A    between atoms: CA   and  CB  
REMARK   40  A    between atoms: CB   and  CG  
ROOT
ATOM    124  CA  TRP A 131      -8.096  -3.335  26.542  1.00 14.52     0.181 C 
ENDROOT
BRANCH 124 125
ATOM    125  CB  TRP A 131      -7.651  -1.877  26.607  1.00 13.06     0.075 C 
BRANCH 125 126
ATOM    126  CG  TRP A 131      -8.015  -1.061  25.386  1.00 16.97    -0.028 A 
ATOM    127  CD2 TRP A 131      -9.085  -0.119  25.279  1.00 11.34    -0.002 A 
ATOM    128  CE2 TRP A 131      -9.054   0.410  23.973  1.00  5.87     0.042 A 
ATOM    129  CE3 TRP A 131     -10.069   0.329  26.166  1.00  3.80     0.014 A 
ATOM    130  CZ2 TRP A 131      -9.969   1.367  23.533  1.00  1.35     0.030 A 
ATOM    131  NE1 TRP A 131      -8.013  -0.185  23.314  1.00 13.90    -0.365 N 
ATOM    132  CH2 TRP A 131     -10.924   1.790  24.425  1.00  1.00     0.002 A 
ATOM    133  CZ3 TRP A 131     -10.980   1.276  25.734  1.00  1.00     0.001 A 
ATOM    134  CD1 TRP A 131      -7.393  -1.067  24.167  1.00 17.22     0.096 A 
ATOM    135  H07 TRP A 131      -7.745  -0.006  22.357  1.00 13.90     0.165 HD
ENDBRANCH 125 126
ENDBRANCH 124 125
END_RES TRP A 131
BEGIN_RES LEU A 148
REMARK  2 active torsions:
REMARK  status: ('A' for Active; 'I' for Inactive)
REMARK   41  A    between atoms: CA   and  CB  
REMARK   42  A    between atoms: CB   and  CG  
ROOT
ATOM    136  CA  LEU A 148      -9.018   3.259  29.295  1.00 16.99     0.177 C 
ENDROOT
BRANCH 136 137
ATOM    137  CB  LEU A 148      -8.166   2.574  28.236  1.00  6.39     0.038 C 
BRANCH 137 138
ATOM    138  CG  LEU A 148      -7.883   3.243  26.907  1.00  1.00    -0.020 C 
ATOM    139  CD2 LEU A 148      -6.802   2.506  26.172  1.00  1.00     0.009 C 
ATOM    140  CD1 LEU A 148      -7.464   4.677  27.175  1.00  2.71     0.009 C 
ENDBRANCH 137 138
ENDBRANCH 136 137
END_RES LEU A 148
BEGIN_RES THR A 154
REMARK  2 active torsions:
REMARK  status: ('A' for Active; 'I' for Inactive)
REMARK   43  A    between atoms: CA   and  CB  
REMARK   44  A    between atoms: CB   and  OG1 
ROOT
ATOM    141  CA  THR A 154     -15.990   3.959  24.426  1.00 20.45     0.205 C 
ENDROOT
BRANCH 141 142
ATOM    142  CB  THR A 154     -14.777   4.829  24.694  1.00 16.79     0.146 C 
ATOM    143  CG2 THR A 154     -13.518   3.984  24.703  1.00 20.24     0.042 C 
BRANCH 142 144
ATOM    144  OG1 THR A 154     -14.669   5.809  23.654  1.00 18.84    -0.393 OA
ATOM    145  H06 THR A 154     -14.555   5.368  22.809  1.00 18.84     0.210 HD
ENDBRANCH 142 144
ENDBRANCH 141 142
END_RES THR A 154
BEGIN_RES VAL A 158
REMARK  1 active torsions:
REMARK  status: ('A' for Active; 'I' for Inactive)
REMARK   45  A    between atoms: CA   and  CB  
ROOT
ATOM    146  CA  VAL A 158     -15.487  -0.189  19.892  1.00 15.49     0.180 C 
ENDROOT
BRANCH 146 147
ATOM    147  CB  VAL A 158     -14.291  -0.273  20.822  1.00  6.52     0.009 C 
ATOM    148  CG1 VAL A 158     -13.243  -1.212  20.269  1.00  1.00     0.012 C 
ATOM    149  CG2 VAL A 158     -13.727   1.102  21.004  1.00  5.99     0.012 C 
ENDBRANCH 146 147
END_RES VAL A 158
BEGIN_RES LEU A 161
REMARK  2 active torsions:
REMARK  status: ('A' for Active; 'I' for Inactive)
REMARK   46  A    between atoms: CA   and  CB  
REMARK   47  A    between atoms: CB   and  CG  
ROOT
ATOM    150  CA  LEU A 161     -18.031  -1.858  15.935  1.00 13.31     0.177 C 
ENDROOT
BRANCH 150 151
ATOM    151  CB  LEU A 161     -17.046  -0.706  16.001  1.00 14.13     0.038 C 
BRANCH 151 152
ATOM    152  CG  LEU A 161     -17.473   0.587  15.317  1.00 19.39    -0.020 C 
ATOM    153  CD2 LEU A 161     -16.383   1.073  14.393  1.00 27.75     0.009 C 
ATOM    154  CD1 LEU A 161     -17.757   1.624  16.371  1.00 18.59     0.009 C 
ENDBRANCH 151 152
ENDBRANCH 150 151
END_RES LEU A 161
BEGIN_RES GLN A 168
REMARK  3 active torsions:
REMARK  status: ('A' for Active; 'I' for Inactive)
REMARK   48  A    between atoms: CA   and  CB  
REMARK   49  A    between atoms: CB   and  CG  
REMARK   50  A    between atoms: CG   and  CD  
REMARK       I    between atoms: CD   and  NE2 
ROOT
ATOM    155  CA  GLN A 168     -22.035  -6.020   8.155  1.00 30.94     0.177 C 
ENDROOT
BRANCH 155 156
ATOM    156  CB  GLN A 168     -23.054  -5.218   8.946  1.00 41.76     0.044 C 
BRANCH 156 157
ATOM    157  CG  GLN A 168     -24.447  -5.786   8.925  1.00 61.20     0.105 C 
BRANCH 157 158
ATOM    158  CD  GLN A 168     -24.763  -6.557  10.192  1.00 75.49     0.215 C 
ATOM    159  NE2 GLN A 168     -26.057  -6.723  10.474  1.00 85.00    -0.370 N 
ATOM    160  H06 GLN A 168     -26.331  -7.226  11.306  1.00 85.00     0.159 HD
ATOM    161  H07 GLN A 168     -26.761  -6.346   9.856  1.00 85.00     0.159 HD
ATOM    162  OE1 GLN A 168     -23.858  -6.995  10.916  1.00 73.64    -0.274 OA
ENDBRANCH 157 158
ENDBRANCH 156 157
ENDBRANCH 155 156
END_RES GLN A 168
ENDMDL
MODEL 8
REMARK VINA RESULT:      -5.5      2.876      8.219
REMARK  Name = human_CD1d_Tyloxapol_pred.rank_0
REMARK  175 active torsions:
REMARK  status: ('A' for Active; 'I' for Inactive)
REMARK    1  A    between atoms: C_1  and  C_3
REMARK    2  A    between atoms: C_3  and  O_4
REMARK    3  A    between atoms: O_4  and  C_5
REMARK    4  A    between atoms: C_5  and  C_7
REMARK    5  A    between atoms: O_6  and  C_7
REMARK    6  A    between atoms: O_6  and  C_9
REMARK    7  A    between atoms: O_8  and  C_11
REMARK    8  A    between atoms: O_8  and  C_13
REMARK    9  A    between atoms: C_9  and  C_11
REMARK   10  A    between atoms: O_10  and  C_15
REMARK   11  A    between atoms: O_10  and  C_17
REMARK   12  A    between atoms: O_12  and  C_19
REMARK   13  A    between atoms: O_12  and  C_21
REMARK   14  A    between atoms: C_13  and  C_15
REMARK   15  A    between atoms: O_14  and  C_23
REMARK   16  A    between atoms: O_14  and  C_25
REMARK   17  A    between atoms: O_16  and  C_27
REMARK   18  A    between atoms: O_16  and  C_29
REMARK   19  A    between atoms: C_17  and  C_19
REMARK   20  A    between atoms: O_18  and  C_37
REMARK   21  A    between atoms: O_18  and  C_39
REMARK   22  A    between atoms: O_20  and  C_41
REMARK   23  A    between atoms: O_20  and  C_43
REMARK   24  A    between atoms: C_21  and  C_23
REMARK   25  A    between atoms: O_22  and  C_49
REMARK   26  A    between atoms: O_22  and  C_51
REMARK   27  A    between atoms: O_24  and  C_53
REMARK   28  A    between atoms: O_24  and  C_55
REMARK   29  A    between atoms: C_25  and  C_27
REMARK   30  A    between atoms: O_26  and  C_57
REMARK   31  A    between atoms: O_26  and  C_59
REMARK   32  A    between atoms: O_28  and  C_61
REMARK   33  A    between atoms: O_28  and  C_63
REMARK   34  A    between atoms: C_29  and  C_31
REMARK   35  A    between atoms: O_30  and  C_65
REMARK   36  A    between atoms: O_30  and  C_67
REMARK   37  A    between atoms: C_31  and  C_33
REMARK   38  A    between atoms: O_32  and  C_69
REMARK   39  A    between atoms: O_32  and  C_71
REMARK   40  A    between atoms: C_33  and  C_35
REMARK   41  A    between atoms: O_34  and  C_73
REMARK   42  A    between atoms: O_34  and  C_75
REMARK   43  A    between atoms: C_35  and  C_37
REMARK   44  A    between atoms: O_36  and  C_77
REMARK   45  A    between atoms: O_36  and  C_79
REMARK   46  A    between atoms: O_38  and  C_81
REMARK   47  A    between atoms: O_38  and  C_83
REMARK   48  A    between atoms: C_39  and  C_41
REMARK   49  A    between atoms: O_40  and  C_85
REMARK   50  A    between atoms: O_40  and  C_87
REMARK   51  A    between atoms: C_43  and  C_45
REMARK   52  A    between atoms: C_43  and  C_163
REMARK   53  A    between atoms: O_44  and  C_116
REMARK   54  A    between atoms: O_44  and  C_117
REMARK   55  A    between atoms: C_45  and  C_47
REMARK   56  A    between atoms: C_45  and  C_150
REMARK   57  A    between atoms: O_46  and  C_118
REMARK   58  A    between atoms: O_46  and  C_119
REMARK   59  A    between atoms: O_48  and  C_120
REMARK   60  A    between atoms: O_48  and  C_121
REMARK   61  A    between atoms: O_50  and  C_122
REMARK   62  A    between atoms: O_50  and  C_123
REMARK   63  A    between atoms: C_51  and  C_53
REMARK   64  A    between atoms: O_52  and  C_124
REMARK   65  A    between atoms: O_52  and  C_125
REMARK   66  A    between atoms: O_54  and  C_126
REMARK   67  A    between atoms: O_54  and  C_127
REMARK   68  A    between atoms: C_55  and  C_57
REMARK   69  A    between atoms: O_56  and  C_128
REMARK   70  A    between atoms: O_56  and  C_129
REMARK   71  A    between atoms: O_58  and  C_130
REMARK   72  A    between atoms: O_58  and  C_131
REMARK   73  A    between atoms: C_59  and  C_61
REMARK   74  A    between atoms: O_60  and  C_132
REMARK   75  A    between atoms: O_60  and  C_133
REMARK   76  A    between atoms: O_62  and  C_134
REMARK   77  A    between atoms: O_62  and  C_135
REMARK   78  A    between atoms: C_63  and  C_65
REMARK   79  A    between atoms: O_66  and  C_180
REMARK   80  A    between atoms: O_66  and  C_181
REMARK   81  A    between atoms: C_67  and  C_69
REMARK   82  A    between atoms: O_68  and  C_182
REMARK   83  A    between atoms: O_68  and  C_183
REMARK   84  A    between atoms: O_70  and  C_184
REMARK   85  A    between atoms: O_70  and  C_185
REMARK   86  A    between atoms: C_71  and  C_73
REMARK   87  A    between atoms: O_72  and  C_186
REMARK   88  A    between atoms: O_72  and  C_187
REMARK   89  A    between atoms: O_74  and  C_188
REMARK   90  A    between atoms: O_74  and  C_189
REMARK   91  A    between atoms: C_75  and  C_77
REMARK   92  A    between atoms: O_76  and  C_190
REMARK   93  A    between atoms: O_76  and  C_191
REMARK   94  A    between atoms: O_78  and  C_192
REMARK   95  A    between atoms: O_78  and  C_193
REMARK   96  A    between atoms: C_79  and  C_81
REMARK   97  A    between atoms: O_80  and  C_194
REMARK   98  A    between atoms: O_80  and  C_195
REMARK   99  A    between atoms: O_82  and  C_196
REMARK  100  A    between atoms: O_82  and  C_197
REMARK  101  A    between atoms: C_83  and  C_85
REMARK  102  A    between atoms: O_84  and  C_198
REMARK  103  A    between atoms: O_84  and  C_199
REMARK  104  A    between atoms: C_87  and  C_89
REMARK  105  A    between atoms: O_88  and  C_215
REMARK  106  A    between atoms: O_88  and  C_216
REMARK  107  A    between atoms: O_90  and  C_217
REMARK  108  A    between atoms: O_90  and  C_218
REMARK  109  A    between atoms: O_92  and  C_219
REMARK  110  A    between atoms: O_92  and  C_220
REMARK  111  A    between atoms: O_94  and  C_221
REMARK  112  A    between atoms: O_94  and  C_222
REMARK  113  A    between atoms: O_96  and  C_223
REMARK  114  A    between atoms: O_96  and  C_224
REMARK  115  A    between atoms: C_97  and  C_99
REMARK  116  A    between atoms: O_98  and  C_225
REMARK  117  A    between atoms: O_98  and  C_226
REMARK  118  A    between atoms: C_99  and  C_105
REMARK  119  A    between atoms: O_100  and  C_227
REMARK  120  A    between atoms: O_100  and  C_228
REMARK  121  A    between atoms: O_102  and  C_229
REMARK  122  A    between atoms: O_102  and  C_230
REMARK  123  A    between atoms: O_104  and  C_231
REMARK  124  A    between atoms: O_104  and  C_232
REMARK  125  A    between atoms: C_105  and  C_107
REMARK  126  A    between atoms: O_106  and  C_233
REMARK  127  A    between atoms: O_106  and  C_234
REMARK  128  A    between atoms: C_117  and  C_118
REMARK  129  A    between atoms: C_119  and  C_120
REMARK  130  A    between atoms: C_121  and  C_122
REMARK  131  A    between atoms: C_123  and  C_124
REMARK  132  A    between atoms: C_125  and  C_126
REMARK  133  A    between atoms: C_127  and  C_128
REMARK  134  A    between atoms: C_129  and  C_130
REMARK  135  A    between atoms: C_131  and  C_132
REMARK  136  A    between atoms: C_133  and  C_134
REMARK  137  A    between atoms: C_135  and  C_136
REMARK  138  A    between atoms: C_138  and  C_139
REMARK  139  A    between atoms: C_139  and  C_142
REMARK  140  A    between atoms: C_142  and  C_145
REMARK  141  A    between atoms: C_150  and  C_151
REMARK  142  A    between atoms: C_151  and  C_152
REMARK  143  A    between atoms: C_152  and  C_155
REMARK  144  A    between atoms: C_155  and  C_158
REMARK  145  A    between atoms: C_163  and  C_164
REMARK  146  A    between atoms: C_166  and  C_167
REMARK  147  A    between atoms: C_167  and  C_168
REMARK  148  A    between atoms: C_168  and  C_171
REMARK  149  A    between atoms: C_178  and  C_179
REMARK  150  A    between atoms: C_179  and  C_180
REMARK  151  A    between atoms: C_179  and  C_214
REMARK  152  A    between atoms: C_181  and  C_182
REMARK  153  A    between atoms: C_183  and  C_184
REMARK  154  A    between atoms: C_185  and  C_186
REMARK  155  A    between atoms: C_187  and  C_188
REMARK  156  A    between atoms: C_189  and  C_190
REMARK  157  A    between atoms: C_191  and  C_192
REMARK  158  A    between atoms: C_193  and  C_194
REMARK  159  A    between atoms: C_195  and  C_196
REMARK  160  A    between atoms: C_197  and  C_198
REMARK  161  A    between atoms: C_199  and  C_200
REMARK  162  A    between atoms: C_203  and  C_204
REMARK  163  A    between atoms: C_203  and  C_214
REMARK  164  A    between atoms: C_204  and  C_207
REMARK  165  A    between atoms: C_207  and  C_210
REMARK  166  A    between atoms: C_216  and  C_217
REMARK  167  A    between atoms: C_218  and  C_219
REMARK  168  A    between atoms: C_220  and  C_221
REMARK  169  A    between atoms: C_222  and  C_223
REMARK  170  A    between atoms: C_224  and  C_225
REMARK  171  A    between atoms: C_226  and  C_227
REMARK  172  A    between atoms: C_228  and  C_229
REMARK  173  A    between atoms: C_230  and  C_231
REMARK  174  A    between atoms: C_232  and  C_233
REMARK  175  A    between atoms: C_234  and  C_235
REMARK                            x       y       z     vdW  Elec       q    Type
REMARK                         _______ _______ _______ _____ _____    ______ ____
ROOT
ATOM      1  C   UNL     1     -12.632  11.849  27.777  0.00  0.00    +0.000 C 
ENDROOT
BRANCH   1   2
ATOM      2  C   UNL     1     -12.824  10.603  26.281  0.00  0.00    +0.000 C 
BRANCH   2   3
ATOM      3  C   UNL     1     -12.760   9.064  26.548  0.00  0.00    +0.000 C 
ATOM      4  C   UNL     1     -11.748   8.694  27.804  0.00  0.00    +0.000 C 
ATOM      5  C   UNL     1     -10.353   8.322  27.321  0.00  0.00    +0.000 C 
ATOM      6  C   UNL     1     -10.499   6.820  26.442  0.00  0.00    +0.000 C 
ATOM      7  C   UNL     1     -10.980   6.821  25.048  0.00  0.00    +0.000 C 
ATOM      8  C   UNL     1     -12.415   7.843  24.944  0.00  0.00    +0.000 C 
BRANCH   5   9
ATOM      9  C   UNL     1      -9.290   8.239  28.550  0.00  0.00    +0.000 C 
ATOM     10  C   UNL     1      -9.545   7.260  29.226  0.00  0.00    +0.000 C 
ATOM     11  C   UNL     1      -7.848   8.360  27.889  0.00  0.00    +0.000 C 
BRANCH   9  12
ATOM     12  C   UNL     1      -9.328   9.569  29.515  0.00  0.00    +0.000 C 
ATOM     13  C   UNL     1     -10.640   9.621  30.338  0.00  0.00    +0.000 C 
ATOM     14  C   UNL     1      -9.624  10.975  28.596  0.00  0.00    +0.000 C 
BRANCH  12  15
ATOM     15  C   UNL     1      -8.111  10.007  30.267  0.00  0.00    +0.000 C 
ATOM     16  C   UNL     1      -8.698   9.964  31.671  0.00  0.00    +0.000 C 
ATOM     17  C   UNL     1      -7.650  11.394  30.059  0.00  0.00    +0.000 C 
ATOM     18  C   UNL     1      -6.960   9.111  30.081  0.00  0.00    +0.000 C 
ENDBRANCH  12  15
ENDBRANCH   9  12
ENDBRANCH   5   9
BRANCH   7  19
ATOM     19  C   UNL     1     -10.718   5.501  24.208  0.00  0.00    +0.000 C 
BRANCH  19  20
ATOM     20  C   UNL     1     -11.188   5.606  22.712  0.00  0.00    +0.000 C 
ATOM     21  C   UNL     1     -10.510   6.813  21.947  0.00  0.00    +0.000 C 
BRANCH  20  22
ATOM     22  O   UNL     1     -10.704   4.424  21.975  0.00  0.00    +0.000 OA
BRANCH  22  23
ATOM     23  C   UNL     1     -11.493   4.031  20.886  0.00  0.00    +0.000 C 
BRANCH  23  24
ATOM     24  C   UNL     1     -10.621   3.450  19.782  0.00  0.00    +0.000 C 
BRANCH  24  25
ATOM     25  O   UNL     1     -11.415   2.688  18.932  0.00  0.00    +0.000 OA
BRANCH  25  26
ATOM     26  C   UNL     1     -11.493   3.221  17.619  0.00  0.00    +0.000 C 
BRANCH  26  27
ATOM     27  C   UNL     1     -10.769   2.373  16.665  0.00  0.00    +0.000 C 
BRANCH  27  28
ATOM     28  O   UNL     1      -9.618   3.018  16.262  0.00  0.00    +0.000 OA
BRANCH  28  29
ATOM     29  C   UNL     1      -9.342   2.924  14.880  0.00  0.00    +0.000 C 
BRANCH  29  30
ATOM     30  C   UNL     1     -10.537   3.426  14.104  0.00  0.00    +0.000 C 
BRANCH  30  31
ATOM     31  O   UNL     1     -10.451   2.918  12.809  0.00  0.00    +0.000 OA
BRANCH  31  32
ATOM     32  C   UNL     1     -11.431   1.887  12.590  0.00  0.00    +0.000 C 
BRANCH  32  33
ATOM     33  C   UNL     1     -12.796   2.434  13.035  0.00  0.00    +0.000 C 
BRANCH  33  34
ATOM     34  O   UNL     1     -13.690   2.294  11.979  0.00  0.00    +0.000 OA
BRANCH  34  35
ATOM     35  C   UNL     1     -15.024   2.756  12.270  0.00  0.00    +0.000 C 
BRANCH  35  36
ATOM     36  C   UNL     1     -15.050   3.724  13.414  0.00  0.00    +0.000 C 
BRANCH  36  37
ATOM     37  O   UNL     1     -16.381   4.320  13.429  0.00  0.00    +0.000 OA
BRANCH  37  38
ATOM     38  C   UNL     1     -17.352   3.370  13.069  0.00  0.00    +0.000 C 
BRANCH  38  39
ATOM     39  C   UNL     1     -18.734   3.782  13.384  0.00  0.00    +0.000 C 
BRANCH  39  40
ATOM     40  O   UNL     1     -19.665   2.809  12.713  0.00  0.00    +0.000 OA
BRANCH  40  41
ATOM     41  C   UNL     1     -20.956   2.832  13.277  0.00  0.00    +0.000 C 
BRANCH  41  42
ATOM     42  C   UNL     1     -21.920   3.557  12.405  0.00  0.00    +0.000 C 
BRANCH  42  43
ATOM     43  O   UNL     1     -23.207   3.140  12.638  0.00  0.00    +0.000 OA
BRANCH  43  44
ATOM     44  C   UNL     1     -24.056   3.098  11.527  0.00  0.00    +0.000 C 
BRANCH  44  45
ATOM     45  C   UNL     1     -23.941   1.815  10.782  0.00  0.00    +0.000 C 
BRANCH  45  46
ATOM     46  O   UNL     1     -25.224   1.183  10.812  0.00  0.00    +0.000 OA
BRANCH  46  47
ATOM     47  C   UNL     1     -25.091  -0.169  10.405  0.00  0.00    +0.000 C 
BRANCH  47  48
ATOM     48  C   UNL     1     -24.331  -0.954  11.553  0.00  0.00    +0.000 C 
BRANCH  48  49
ATOM     49  O   UNL     1     -23.993  -2.218  11.099  0.00  0.00    +0.000 OA
BRANCH  49  50
ATOM     50  C   UNL     1     -24.341  -3.274  11.930  0.00  0.00    +0.000 C 
BRANCH  50  52
ATOM     51  O   UNL     1     -25.878  -5.088  11.742  0.00  0.00    +0.000 OA
ATOM     52  C   UNL     1     -25.819  -3.648  11.699  0.00  0.00    +0.000 C 
ENDBRANCH  50  52
ENDBRANCH  49  50
ENDBRANCH  48  49
ENDBRANCH  47  48
ENDBRANCH  46  47
ENDBRANCH  45  46
ENDBRANCH  44  45
ENDBRANCH  43  44
ENDBRANCH  42  43
ENDBRANCH  41  42
ENDBRANCH  40  41
ENDBRANCH  39  40
ENDBRANCH  38  39
ENDBRANCH  37  38
ENDBRANCH  36  37
ENDBRANCH  35  36
ENDBRANCH  34  35
ENDBRANCH  33  34
ENDBRANCH  32  33
ENDBRANCH  31  32
ENDBRANCH  30  31
ENDBRANCH  29  30
ENDBRANCH  28  29
ENDBRANCH  27  28
ENDBRANCH  26  27
ENDBRANCH  25  26
ENDBRANCH  24  25
ENDBRANCH  23  24
ENDBRANCH  22  23
ENDBRANCH  20  22
ENDBRANCH  19  20
BRANCH  19  53
ATOM     53  C   UNL     1      -9.195   4.967  24.121  0.00  0.00    +0.000 C 
BRANCH  53  55
ATOM     54  C   UNL     1      -7.835   6.903  24.305  0.00  0.00    +0.000 C 
ATOM     55  C   UNL     1      -8.061   5.557  23.717  0.00  0.00    +0.000 C 
BRANCH  55  56
ATOM     56  C   UNL     1      -7.051   4.957  22.742  0.00  0.00    +0.000 C 
ATOM     57  C   UNL     1      -7.270   3.490  22.900  0.00  0.00    +0.000 C 
ATOM     58  C   UNL     1      -7.442   5.324  21.339  0.00  0.00    +0.000 C 
BRANCH  56  59
ATOM     59  C   UNL     1      -5.595   5.403  23.075  0.00  0.00    +0.000 C 
ATOM     60  C   UNL     1      -5.224   5.119  24.478  0.00  0.00    +0.000 C 
ATOM     61  C   UNL     1      -5.510   6.926  22.820  0.00  0.00    +0.000 C 
BRANCH  59  62
ATOM     62  C   UNL     1      -4.480   4.740  22.142  0.00  0.00    +0.000 C 
ATOM     63  C   UNL     1      -3.840   3.582  22.819  0.00  0.00    +0.000 C 
ATOM     64  C   UNL     1      -3.371   5.735  21.895  0.00  0.00    +0.000 C 
ATOM     65  C   UNL     1      -4.957   4.367  20.822  0.00  0.00    +0.000 C 
ENDBRANCH  59  62
ENDBRANCH  56  59
ENDBRANCH  55  56
ENDBRANCH  53  55
ENDBRANCH  19  53
ENDBRANCH   7  19
BRANCH   8  66
ATOM     66  O   UNL     1     -13.310   7.904  23.915  0.00  0.00    +0.000 OA
BRANCH  66  67
ATOM     67  C   UNL     1     -13.084   8.917  22.963  0.00  0.00    +0.000 C 
BRANCH  67  68
ATOM     68  C   UNL     1     -13.729   8.733  21.572  0.00  0.00    +0.000 C 
BRANCH  68  69
ATOM     69  O   UNL     1     -14.370   7.488  21.532  0.00  0.00    +0.000 OA
BRANCH  69  70
ATOM     70  C   UNL     1     -15.672   7.544  20.864  0.00  0.00    +0.000 C 
BRANCH  70  71
ATOM     71  C   UNL     1     -15.545   8.142  19.474  0.00  0.00    +0.000 C 
BRANCH  71  72
ATOM     72  O   UNL     1     -15.361   7.002  18.455  0.00  0.00    +0.000 OA
BRANCH  72  73
ATOM     73  C   UNL     1     -15.775   5.758  19.005  0.00  0.00    +0.000 C 
BRANCH  73  74
ATOM     74  C   UNL     1     -14.767   4.676  18.595  0.00  0.00    +0.000 C 
BRANCH  74  75
ATOM     75  O   UNL     1     -14.838   4.416  17.229  0.00  0.00    +0.000 OA
BRANCH  75  76
ATOM     76  C   UNL     1     -15.543   3.207  16.919  0.00  0.00    +0.000 C 
BRANCH  76  77
ATOM     77  C   UNL     1     -14.814   1.988  17.417  0.00  0.00    +0.000 C 
BRANCH  77  78
ATOM     78  O   UNL     1     -14.206   1.429  16.261  0.00  0.00    +0.000 OA
BRANCH  78  79
ATOM     79  C   UNL     1     -13.708   0.065  16.465  0.00  0.00    +0.000 C 
BRANCH  79  80
ATOM     80  C   UNL     1     -12.947  -0.295  15.247  0.00  0.00    +0.000 C 
BRANCH  80  81
ATOM     81  O   UNL     1     -13.806  -0.754  14.170  0.00  0.00    +0.000 OA
BRANCH  81  82
ATOM     82  C   UNL     1     -13.147  -1.522  13.215  0.00  0.00    +0.000 C 
BRANCH  82  83
ATOM     83  C   UNL     1     -13.676  -1.198  11.803  0.00  0.00    +0.000 C 
BRANCH  83  84
ATOM     84  O   UNL     1     -15.073  -1.027  11.829  0.00  0.00    +0.000 OA
BRANCH  84  85
ATOM     85  C   UNL     1     -15.679  -0.664  10.692  0.00  0.00    +0.000 C 
BRANCH  85  86
ATOM     86  C   UNL     1     -14.850  -1.108   9.468  0.00  0.00    +0.000 C 
BRANCH  86  87
ATOM     87  O   UNL     1     -14.679  -0.089   8.518  0.00  0.00    +0.000 OA
BRANCH  87  88
ATOM     88  C   UNL     1     -15.225   1.129   8.885  0.00  0.00    +0.000 C 
BRANCH  88  89
ATOM     89  C   UNL     1     -15.069   2.160   7.779  0.00  0.00    +0.000 C 
BRANCH  89  90
ATOM     90  O   UNL     1     -14.396   3.305   8.290  0.00  0.00    +0.000 OA
BRANCH  90  91
ATOM     91  C   UNL     1     -14.180   4.238   7.210  0.00  0.00    +0.000 C 
BRANCH  91  92
ATOM     92  C   UNL     1     -12.805   3.977   6.650  0.00  0.00    +0.000 C 
BRANCH  92  93
ATOM     93  O   UNL     1     -11.843   4.279   7.658  0.00  0.00    +0.000 OA
BRANCH  93  94
ATOM     94  C   UNL     1     -10.625   4.671   7.154  0.00  0.00    +0.000 C 
BRANCH  94  96
ATOM     95  O   UNL     1      -9.803   6.389   5.688  0.00  0.00    +0.000 OA
ATOM     96  C   UNL     1     -10.802   5.413   5.825  0.00  0.00    +0.000 C 
ENDBRANCH  94  96
ENDBRANCH  93  94
ENDBRANCH  92  93
ENDBRANCH  91  92
ENDBRANCH  90  91
ENDBRANCH  89  90
ENDBRANCH  88  89
ENDBRANCH  87  88
ENDBRANCH  86  87
ENDBRANCH  85  86
ENDBRANCH  84  85
ENDBRANCH  83  84
ENDBRANCH  82  83
ENDBRANCH  81  82
ENDBRANCH  80  81
ENDBRANCH  79  80
ENDBRANCH  78  79
ENDBRANCH  77  78
ENDBRANCH  76  77
ENDBRANCH  75  76
ENDBRANCH  74  75
ENDBRANCH  73  74
ENDBRANCH  72  73
ENDBRANCH  71  72
ENDBRANCH  70  71
ENDBRANCH  69  70
ENDBRANCH  68  69
ENDBRANCH  67  68
ENDBRANCH  66  67
ENDBRANCH   8  66
ENDBRANCH   2   3
ENDBRANCH   1   2
BRANCH   1  97
ATOM     97  C   UNL     1     -13.600  12.046  28.929  0.00  0.00    +0.000 C 
BRANCH  97  98
ATOM     98  C   UNL     1     -14.613  10.797  29.099  0.00  0.00    +0.000 C 
ATOM     99  C   UNL     1     -15.923  10.983  28.276  0.00  0.00    +0.000 C 
ATOM    100  C   UNL     1     -16.999   9.813  28.371  0.00  0.00    +0.000 C 
ATOM    101  C   UNL     1     -18.276   9.150  28.093  0.00  0.00    +0.000 C 
ATOM    102  C   UNL     1     -19.092   8.329  29.063  0.00  0.00    +0.000 C 
ATOM    103  C   UNL     1     -20.371   7.763  28.692  0.00  0.00    +0.000 C 
ATOM    104  C   UNL     1     -20.853   8.083  27.375  0.00  0.00    +0.000 C 
ATOM    105  C   UNL     1     -20.110   8.761  26.416  0.00  0.00    +0.000 C 
ATOM    106  C   UNL     1     -18.896   9.197  26.855  0.00  0.00    +0.000 C 
ATOM    107  C   UNL     1     -16.855   9.385  29.080  0.00  0.00    +0.000 C 
ATOM    108  C   UNL     1     -15.823   8.930  29.826  0.00  0.00    +0.000 C 
ATOM    109  C   UNL     1     -14.406   9.480  29.606  0.00  0.00    +0.000 C 
BRANCH 103 110
ATOM    110  C   UNL     1     -21.101   6.854  29.677  0.00  0.00    +0.000 C 
ATOM    111  C   UNL     1     -22.275   6.265  28.843  0.00  0.00    +0.000 C 
ATOM    112  C   UNL     1     -20.256   5.711  30.000  0.00  0.00    +0.000 C 
BRANCH 110 113
ATOM    113  C   UNL     1     -21.693   7.407  30.994  0.00  0.00    +0.000 C 
ATOM    114  C   UNL     1     -22.684   6.392  31.469  0.00  0.00    +0.000 C 
ATOM    115  C   UNL     1     -20.564   7.583  32.013  0.00  0.00    +0.000 C 
BRANCH 113 116
ATOM    116  C   UNL     1     -22.379   8.842  30.874  0.00  0.00    +0.000 C 
ATOM    117  C   UNL     1     -23.294   8.909  29.667  0.00  0.00    +0.000 C 
ATOM    118  C   UNL     1     -21.357   9.889  30.610  0.00  0.00    +0.000 C 
ATOM    119  C   UNL     1     -23.114   9.195  32.136  0.00  0.00    +0.000 C 
ENDBRANCH 113 116
ENDBRANCH 110 113
ENDBRANCH 103 110
BRANCH 108 120
ATOM    120  C   UNL     1     -16.167   8.336  31.242  0.00  0.00    +0.000 C 
ATOM    121  C   UNL     1     -14.840   7.850  31.848  0.00  0.00    +0.000 C 
ATOM    122  C   UNL     1     -16.967   7.105  31.012  0.00  0.00    +0.000 C 
BRANCH 120 123
ATOM    123  C   UNL     1     -16.750   9.354  32.372  0.00  0.00    +0.000 C 
ATOM    124  C   UNL     1     -17.837  10.207  31.889  0.00  0.00    +0.000 C 
ATOM    125  C   UNL     1     -17.337   8.584  33.529  0.00  0.00    +0.000 C 
BRANCH 123 126
ATOM    126  C   UNL     1     -15.700  10.378  32.927  0.00  0.00    +0.000 C 
ATOM    127  C   UNL     1     -14.368   9.714  32.946  0.00  0.00    +0.000 C 
ATOM    128  C   UNL     1     -15.997  10.731  34.359  0.00  0.00    +0.000 C 
ATOM    129  C   UNL     1     -15.743  11.643  32.156  0.00  0.00    +0.000 C 
ENDBRANCH 123 126
ENDBRANCH 120 123
ENDBRANCH 108 120
BRANCH 106 130
ATOM    130  O   UNL     1     -18.009   9.682  25.922  0.00  0.00    +0.000 OA
BRANCH 130 131
ATOM    131  C   UNL     1     -17.182   8.757  25.177  0.00  0.00    +0.000 C 
BRANCH 131 132
ATOM    132  C   UNL     1     -16.748   9.467  23.908  0.00  0.00    +0.000 C 
BRANCH 132 133
ATOM    133  O   UNL     1     -17.842  10.041  23.283  0.00  0.00    +0.000 OA
BRANCH 133 134
ATOM    134  C   UNL     1     -17.553  10.531  21.984  0.00  0.00    +0.000 C 
BRANCH 134 135
ATOM    135  C   UNL     1     -18.812  10.638  21.196  0.00  0.00    +0.000 C 
BRANCH 135 136
ATOM    136  O   UNL     1     -18.669   9.918  20.315  0.00  0.00    +0.000 OA
BRANCH 136 137
ATOM    137  C   UNL     1     -19.392  10.285  19.192  0.00  0.00    +0.000 C 
BRANCH 137 138
ATOM    138  C   UNL     1     -19.887   9.062  18.346  0.00  0.00    +0.000 C 
BRANCH 138 139
ATOM    139  O   UNL     1     -20.537   9.554  17.265  0.00  0.00    +0.000 OA
BRANCH 139 140
ATOM    140  C   UNL     1     -21.922   9.151  17.217  0.00  0.00    +0.000 C 
BRANCH 140 141
ATOM    141  C   UNL     1     -22.134   8.009  18.161  0.00  0.00    +0.000 C 
BRANCH 141 142
ATOM    142  O   UNL     1     -23.513   7.732  18.274  0.00  0.00    +0.000 OA
BRANCH 142 143
ATOM    143  C   UNL     1     -24.146   7.497  17.019  0.00  0.00    +0.000 C 
BRANCH 143 144
ATOM    144  C   UNL     1     -24.708   6.051  16.978  0.00  0.00    +0.000 C 
BRANCH 144 145
ATOM    145  O   UNL     1     -23.663   5.082  16.788  0.00  0.00    +0.000 OA
BRANCH 145 146
ATOM    146  C   UNL     1     -23.897   3.981  15.898  0.00  0.00    +0.000 C 
BRANCH 146 147
ATOM    147  C   UNL     1     -23.154   2.737  16.316  0.00  0.00    +0.000 C 
BRANCH 147 148
ATOM    148  O   UNL     1     -23.331   2.573  17.735  0.00  0.00    +0.000 OA
BRANCH 148 149
ATOM    149  C   UNL     1     -24.560   1.984  18.129  0.00  0.00    +0.000 C 
BRANCH 149 150
ATOM    150  C   UNL     1     -24.344   1.122  19.355  0.00  0.00    +0.000 C 
BRANCH 150 151
ATOM    151  O   UNL     1     -23.448   1.809  20.238  0.00  0.00    +0.000 OA
BRANCH 151 152
ATOM    152  C   UNL     1     -22.570   1.019  20.961  0.00  0.00    +0.000 C 
BRANCH 152 153
ATOM    153  C   UNL     1     -22.874   1.062  22.447  0.00  0.00    +0.000 C 
BRANCH 153 154
ATOM    154  O   UNL     1     -23.979   0.205  22.728  0.00  0.00    +0.000 OA
BRANCH 154 155
ATOM    155  C   UNL     1     -24.890   0.728  23.652  0.00  0.00    +0.000 C 
BRANCH 155 156
ATOM    156  C   UNL     1     -25.306   2.163  23.241  0.00  0.00    +0.000 C 
BRANCH 156 157
ATOM    157  O   UNL     1     -26.214   2.043  22.141  0.00  0.00    +0.000 OA
BRANCH 157 158
ATOM    158  C   UNL     1     -26.574   3.283  21.592  0.00  0.00    +0.000 C 
BRANCH 158 160
ATOM    159  O   UNL     1     -28.626   4.360  20.728  0.00  0.00    +0.000 OA
ATOM    160  C   UNL     1     -27.863   3.047  20.936  0.00  0.00    +0.000 C 
ENDBRANCH 158 160
ENDBRANCH 157 158
ENDBRANCH 156 157
ENDBRANCH 155 156
ENDBRANCH 154 155
ENDBRANCH 153 154
ENDBRANCH 152 153
ENDBRANCH 151 152
ENDBRANCH 150 151
ENDBRANCH 149 150
ENDBRANCH 148 149
ENDBRANCH 147 148
ENDBRANCH 146 147
ENDBRANCH 145 146
ENDBRANCH 144 145
ENDBRANCH 143 144
ENDBRANCH 142 143
ENDBRANCH 141 142
ENDBRANCH 140 141
ENDBRANCH 139 140
ENDBRANCH 138 139
ENDBRANCH 137 138
ENDBRANCH 136 137
ENDBRANCH 135 136
ENDBRANCH 134 135
ENDBRANCH 133 134
ENDBRANCH 132 133
ENDBRANCH 131 132
ENDBRANCH 130 131
ENDBRANCH 106 130
BRANCH  99 161
ATOM    161  O   UNL     1     -16.493  12.227  28.165  0.00  0.00    +0.000 OA
BRANCH 161 162
ATOM    162  C   UNL     1     -17.479  12.640  29.117  0.00  0.00    +0.000 C 
BRANCH 162 163
ATOM    163  C   UNL     1     -18.832  13.026  28.539  0.00  0.00    +0.000 C 
BRANCH 163 164
ATOM    164  O   UNL     1     -18.890  12.712  27.180  0.00  0.00    +0.000 OA
BRANCH 164 165
ATOM    165  C   UNL     1     -20.173  12.716  26.616  0.00  0.00    +0.000 C 
BRANCH 165 166
ATOM    166  C   UNL     1     -20.178  12.340  25.131  0.00  0.00    +0.000 C 
BRANCH 166 167
ATOM    167  O   UNL     1     -21.450  11.728  24.804  0.00  0.00    +0.000 OA
BRANCH 167 168
ATOM    168  C   UNL     1     -21.328  10.887  23.676  0.00  0.00    +0.000 C 
BRANCH 168 169
ATOM    169  C   UNL     1     -22.632  10.151  23.405  0.00  0.00    +0.000 C 
BRANCH 169 170
ATOM    170  O   UNL     1     -22.565   8.851  23.901  0.00  0.00    +0.000 OA
BRANCH 170 171
ATOM    171  C   UNL     1     -23.830   8.245  24.077  0.00  0.00    +0.000 C 
BRANCH 171 172
ATOM    172  C   UNL     1     -23.861   7.344  25.352  0.00  0.00    +0.000 C 
BRANCH 172 173
ATOM    173  O   UNL     1     -24.301   8.153  26.430  0.00  0.00    +0.000 OA
BRANCH 173 174
ATOM    174  C   UNL     1     -25.611   7.703  26.893  0.00  0.00    +0.000 C 
BRANCH 174 175
ATOM    175  C   UNL     1     -25.630   6.177  26.960  0.00  0.00    +0.000 C 
BRANCH 175 176
ATOM    176  O   UNL     1     -26.805   5.735  26.363  0.00  0.00    +0.000 OA
BRANCH 176 177
ATOM    177  C   UNL     1     -26.757   4.357  26.030  0.00  0.00    +0.000 C 
BRANCH 177 178
ATOM    178  C   UNL     1     -26.842   3.583  27.339  0.00  0.00    +0.000 C 
BRANCH 178 179
ATOM    179  O   UNL     1     -26.144   2.357  27.213  0.00  0.00    +0.000 OA
BRANCH 179 180
ATOM    180  C   UNL     1     -24.738   2.536  26.899  0.00  0.00    +0.000 C 
BRANCH 180 181
ATOM    181  C   UNL     1     -23.977   2.961  28.155  0.00  0.00    +0.000 C 
BRANCH 181 182
ATOM    182  O   UNL     1     -22.597   2.805  27.968  0.00  0.00    +0.000 OA
BRANCH 182 183
ATOM    183  C   UNL     1     -21.890   2.509  29.223  0.00  0.00    +0.000 C 
BRANCH 183 184
ATOM    184  C   UNL     1     -22.737   2.731  30.476  0.00  0.00    +0.000 C 
BRANCH 184 185
ATOM    185  O   UNL     1     -21.850   2.837  31.541  0.00  0.00    +0.000 OA
BRANCH 185 186
ATOM    186  C   UNL     1     -21.916   1.711  32.434  0.00  0.00    +0.000 C 
BRANCH 186 187
ATOM    187  C   UNL     1     -21.349   2.072  33.788  0.00  0.00    +0.000 C 
BRANCH 187 188
ATOM    188  O   UNL     1     -20.318   3.114  33.528  0.00  0.00    +0.000 OA
BRANCH 188 189
ATOM    189  C   UNL     1     -19.236   2.982  34.473  0.00  0.00    +0.000 C 
BRANCH 189 191
ATOM    190  O   UNL     1     -18.495   4.533  32.844  0.00  0.00    +0.000 OA
ATOM    191  C   UNL     1     -18.066   3.762  33.917  0.00  0.00    +0.000 C 
ENDBRANCH 189 191
ENDBRANCH 188 189
ENDBRANCH 187 188
ENDBRANCH 186 187
ENDBRANCH 185 186
ENDBRANCH 184 185
ENDBRANCH 183 184
ENDBRANCH 182 183
ENDBRANCH 181 182
ENDBRANCH 180 181
ENDBRANCH 179 180
ENDBRANCH 178 179
ENDBRANCH 177 178
ENDBRANCH 176 177
ENDBRANCH 175 176
ENDBRANCH 174 175
ENDBRANCH 173 174
ENDBRANCH 172 173
ENDBRANCH 171 172
ENDBRANCH 170 171
ENDBRANCH 169 170
ENDBRANCH 168 169
ENDBRANCH 167 168
ENDBRANCH 166 167
ENDBRANCH 165 166
ENDBRANCH 164 165
ENDBRANCH 163 164
ENDBRANCH 162 163
ENDBRANCH 161 162
ENDBRANCH  99 161
ENDBRANCH  97  98
BRANCH  97 192
ATOM    192  C   UNL     1     -12.680  12.729  29.783  0.00  0.00    +0.000 C 
BRANCH 192 193
ATOM    193  C   UNL     1     -12.928  13.931  30.539  0.00  0.00    +0.000 C 
ATOM    194  C   UNL     1     -14.231  14.578  30.543  0.00  0.00    +0.000 C 
BRANCH 193 195
ATOM    195  C   UNL     1     -11.871  14.586  31.332  0.00  0.00    +0.000 C 
ATOM    196  C   UNL     1     -10.564  14.432  30.536  0.00  0.00    +0.000 C 
ATOM    197  C   UNL     1     -12.123  16.093  31.470  0.00  0.00    +0.000 C 
BRANCH 195 198
ATOM    198  C   UNL     1     -11.751  13.896  32.789  0.00  0.00    +0.000 C 
ATOM    199  C   UNL     1     -11.964  12.448  32.725  0.00  0.00    +0.000 C 
ATOM    200  C   UNL     1     -12.731  14.507  33.737  0.00  0.00    +0.000 C 
BRANCH 198 201
ATOM    201  C   UNL     1     -10.395  14.044  33.576  0.00  0.00    +0.000 C 
ATOM    202  C   UNL     1     -10.419  13.387  34.922  0.00  0.00    +0.000 C 
ATOM    203  C   UNL     1     -10.041  15.482  33.849  0.00  0.00    +0.000 C 
ATOM    204  C   UNL     1      -9.326  13.364  32.862  0.00  0.00    +0.000 C 
ENDBRANCH 198 201
ENDBRANCH 195 198
ENDBRANCH 193 195
ENDBRANCH 192 193
ENDBRANCH  97 192
ENDBRANCH   1  97
BRANCH   1 205
ATOM    205  O   UNL     1     -12.547  13.000  26.964  0.00  0.00    +0.000 OA
BRANCH 205 206
ATOM    206  C   UNL     1     -13.798  13.591  26.692  0.00  0.00    +0.000 C 
BRANCH 206 207
ATOM    207  C   UNL     1     -13.784  14.355  25.400  0.00  0.00    +0.000 C 
BRANCH 207 208
ATOM    208  O   UNL     1     -14.220  13.538  24.307  0.00  0.00    +0.000 OA
BRANCH 208 209
ATOM    209  C   UNL     1     -15.340  12.689  24.639  0.00  0.00    +0.000 C 
BRANCH 209 210
ATOM    210  C   UNL     1     -16.643  13.382  24.327  0.00  0.00    +0.000 C 
BRANCH 210 211
ATOM    211  C   UNL     1     -16.661  14.037  22.945  0.00  0.00    +0.000 C 
BRANCH 211 212
ATOM    212  C   UNL     1     -17.349  15.384  22.984  0.00  0.00    +0.000 C 
BRANCH 212 213
ATOM    213  C   UNL     1     -18.695  15.316  22.342  0.00  0.00    +0.000 C 
BRANCH 213 214
ATOM    214  O   UNL     1     -18.941  14.097  21.812  0.00  0.00    +0.000 OA
BRANCH 214 215
ATOM    215  C   UNL     1     -20.339  13.930  21.446  0.00  0.00    +0.000 C 
BRANCH 215 216
ATOM    216  C   UNL     1     -20.549  13.925  19.946  0.00  0.00    +0.000 C 
BRANCH 216 217
ATOM    217  O   UNL     1     -21.260  15.017  19.567  0.00  0.00    +0.000 OA
BRANCH 217 218
ATOM    218  C   UNL     1     -20.882  16.336  18.980  0.00  0.00    +0.000 C 
BRANCH 218 219
ATOM    219  C   UNL     1     -19.333  16.264  18.766  0.00  0.00    +0.000 C 
BRANCH 219 220
ATOM    220  O   UNL     1     -19.007  16.569  17.462  0.00  0.00    +0.000 OA
BRANCH 220 221
ATOM    221  C   UNL     1     -17.617  16.825  17.193  0.00  0.00    +0.000 C 
BRANCH 221 222
ATOM    222  C   UNL     1     -17.340  16.563  15.714  0.00  0.00    +0.000 C 
BRANCH 222 223
ATOM    223  O   UNL     1     -18.509  16.665  14.942  0.00  0.00    +0.000 OA
BRANCH 223 224
ATOM    224  C   UNL     1     -18.328  17.307  13.693  0.00  0.00    +0.000 C 
BRANCH 224 225
ATOM    225  C   UNL     1     -19.712  17.463  13.054  0.00  0.00    +0.000 C 
BRANCH 225 226
ATOM    226  O   UNL     1     -20.724  17.561  14.052  0.00  0.00    +0.000 OA
BRANCH 226 227
ATOM    227  C   UNL     1     -22.000  17.152  13.595  0.00  0.00    +0.000 C 
BRANCH 227 228
ATOM    228  C   UNL     1     -21.905  16.846  12.122  0.00  0.00    +0.000 C 
BRANCH 228 229
ATOM    229  O   UNL     1     -22.159  15.497  11.838  0.00  0.00    +0.000 OA
BRANCH 229 230
ATOM    230  C   UNL     1     -23.317  15.019  12.469  0.00  0.00    +0.000 C 
BRANCH 230 231
ATOM    231  C   UNL     1     -23.852  13.819  11.748  0.00  0.00    +0.000 C 
BRANCH 231 232
ATOM    232  O   UNL     1     -24.363  12.907  12.689  0.00  0.00    +0.000 OA
BRANCH 232 233
ATOM    233  C   UNL     1     -24.438  11.586  12.204  0.00  0.00    +0.000 C 
BRANCH 233 234
ATOM    234  C   UNL     1     -25.857  11.259  11.793  0.00  0.00    +0.000 C 
ATOM    235  O   UNL     1     -26.116  11.836  10.533  0.00  0.00    +0.000 OA
ENDBRANCH 233 234
ENDBRANCH 232 233
ENDBRANCH 231 232
ENDBRANCH 230 231
ENDBRANCH 229 230
ENDBRANCH 228 229
ENDBRANCH 227 228
ENDBRANCH 226 227
ENDBRANCH 225 226
ENDBRANCH 224 225
ENDBRANCH 223 224
ENDBRANCH 222 223
ENDBRANCH 221 222
ENDBRANCH 220 221
ENDBRANCH 219 220
ENDBRANCH 218 219
ENDBRANCH 217 218
ENDBRANCH 216 217
ENDBRANCH 215 216
ENDBRANCH 214 215
ENDBRANCH 213 214
ENDBRANCH 212 213
ENDBRANCH 211 212
ENDBRANCH 210 211
ENDBRANCH 209 210
ENDBRANCH 208 209
ENDBRANCH 207 208
ENDBRANCH 206 207
ENDBRANCH 205 206
ENDBRANCH   1 205
TORSDOF 175
BEGIN_RES LEU A  10
REMARK  2 active torsions:
REMARK  status: ('A' for Active; 'I' for Inactive)
REMARK    1  A    between atoms: CA   and  CB  
REMARK    2  A    between atoms: CB   and  CG  
ROOT
ATOM      1  CA  LEU A  10     -10.775  -4.871   5.898  1.00 25.14     0.177 C 
ENDROOT
BRANCH   1   2
ATOM      2  CB  LEU A  10     -12.191  -4.387   6.226  1.00 17.87     0.038 C 
BRANCH   2   3
ATOM      3  CG  LEU A  10     -12.486  -2.950   5.789  1.00 24.95    -0.020 C 
ATOM      4  CD2 LEU A  10     -12.224  -2.031   6.934  1.00 26.38     0.009 C 
ATOM      5  CD1 LEU A  10     -13.920  -2.812   5.309  1.00 28.12     0.009 C 
ENDBRANCH   2   3
ENDBRANCH   1   2
END_RES LEU A  10
BEGIN_RES CYS A  12
REMARK  2 active torsions:
REMARK  status: ('A' for Active; 'I' for Inactive)
REMARK    3  A    between atoms: CA   and  CB  
REMARK    4  A    between atoms: CB   and  SG  
ROOT
ATOM      6  CA  CYS A  12      -8.555   0.470   8.750  1.00 23.16     0.185 C 
ENDROOT
BRANCH   6   7
ATOM      7  CB  CYS A  12      -9.828   0.763   9.555  1.00 20.43     0.105 C 
BRANCH   7   8
ATOM      8  SG  CYS A  12     -11.334   1.079   8.584  1.00 24.64    -0.180 SA
ATOM      9  H04 CYS A  12     -11.298   0.357   7.457  1.00 24.64     0.101 HD
ENDBRANCH   7   8
ENDBRANCH   6   7
END_RES CYS A  12
BEGIN_RES GLN A  14
REMARK  3 active torsions:
REMARK  status: ('A' for Active; 'I' for Inactive)
REMARK    5  A    between atoms: CA   and  CB  
REMARK    6  A    between atoms: CB   and  CG  
REMARK    7  A    between atoms: CG   and  CD  
REMARK       I    between atoms: CD   and  NE2 
ROOT
ATOM     10  CA  GLN A  14      -4.645   5.402  11.377  1.00 10.43     0.177 C 
ENDROOT
BRANCH  10  11
ATOM     11  CB  GLN A  14      -5.541   5.549  12.608  1.00 14.45     0.044 C 
BRANCH  11  12
ATOM     12  CG  GLN A  14      -6.738   6.447  12.396  1.00 13.74     0.105 C 
BRANCH  12  13
ATOM     13  CD  GLN A  14      -8.029   5.670  12.282  1.00 16.29     0.215 C 
ATOM     14  NE2 GLN A  14      -7.943   4.464  11.765  1.00  8.57    -0.370 N 
ATOM     15  H06 GLN A  14      -8.773   3.898  11.665  1.00  8.57     0.159 HD
ATOM     16  H07 GLN A  14      -7.047   4.104  11.468  1.00  8.57     0.159 HD
ATOM     17  OE1 GLN A  14      -9.087   6.149  12.657  1.00 23.55    -0.274 OA
ENDBRANCH  12  13
ENDBRANCH  11  12
ENDBRANCH  10  11
END_RES GLN A  14
BEGIN_RES SER A  16
REMARK  2 active torsions:
REMARK  status: ('A' for Active; 'I' for Inactive)
REMARK    8  A    between atoms: CA   and  CB  
REMARK    9  A    between atoms: CB   and  OG  
ROOT
ATOM     18  CA  SER A  16      -1.305  10.019  14.282  1.00  2.34     0.200 C 
ENDROOT
BRANCH  18  19
ATOM     19  CB  SER A  16      -2.242   9.935  15.479  1.00  3.12     0.199 C 
BRANCH  19  20
ATOM     20  OG  SER A  16      -2.199   8.638  16.048  1.00  1.00    -0.398 OA
ATOM     21  H04 SER A  16      -1.818   8.687  16.928  1.00  1.00     0.209 HD
ENDBRANCH  19  20
ENDBRANCH  18  19
END_RES SER A  16
BEGIN_RES LEU A  32
REMARK  2 active torsions:
REMARK  status: ('A' for Active; 'I' for Inactive)
REMARK   10  A    between atoms: CA   and  CB  
REMARK   11  A    between atoms: CB   and  CG  
ROOT
ATOM     22  CA  LEU A  32     -10.272  -4.106   1.587  1.00 16.16     0.177 C 
ENDROOT
BRANCH  22  23
ATOM     23  CB  LEU A  32     -11.613  -3.858   0.880  1.00 12.35     0.038 C 
BRANCH  23  24
ATOM     24  CG  LEU A  32     -12.676  -4.900   1.284  1.00  9.77    -0.020 C 
ATOM     25  CD1 LEU A  32     -12.421  -6.211   0.578  1.00  4.35     0.009 C 
ATOM     26  CD2 LEU A  32     -12.677  -5.116   2.774  1.00 10.60     0.009 C 
ENDBRANCH  23  24
ENDBRANCH  22  23
END_RES LEU A  32
BEGIN_RES HIS A  38
REMARK  2 active torsions:
REMARK  status: ('A' for Active; 'I' for Inactive)
REMARK   12  A    between atoms: CA   and  CB  
REMARK   13  A    between atoms: CB   and  CG  
ROOT
ATOM     27  CA  HIS A  38     -10.959   4.941   1.621  1.00 16.94     0.182 C 
ENDROOT
BRANCH  27  28
ATOM     28  CB  HIS A  38     -11.810   4.840   2.881  1.00 15.47     0.095 C 
BRANCH  28  29
ATOM     29  CG  HIS A  38     -13.275   5.003   2.635  1.00 18.62     0.053 A 
ATOM     30  CD2 HIS A  38     -13.956   5.335   1.512  1.00 15.06     0.116 A 
ATOM     31  NE2 HIS A  38     -15.290   5.314   1.829  1.00 18.12    -0.359 N 
ATOM     32  CE1 HIS A  38     -15.425   4.982   3.099  1.00 14.78     0.207 A 
ATOM     33  H06 HIS A  38     -16.047   5.519   1.193  1.00 18.12     0.166 HD
ATOM     34  ND1 HIS A  38     -14.225   4.790   3.609  1.00 16.58    -0.247 NA
ENDBRANCH  28  29
ENDBRANCH  27  28
END_RES HIS A  38
BEGIN_RES TRP A  63
REMARK  2 active torsions:
REMARK  status: ('A' for Active; 'I' for Inactive)
REMARK   14  A    between atoms: CA   and  CB  
REMARK   15  A    between atoms: CB   and  CG  
ROOT
ATOM     35  CA  TRP A  63     -22.437   6.257   6.543  1.00 27.04     0.181 C 
ENDROOT
BRANCH  35  36
ATOM     36  CB  TRP A  63     -22.360   6.642   5.068  1.00 31.37     0.075 C 
BRANCH  36  37
ATOM     37  CG  TRP A  63     -20.969   6.579   4.473  1.00 34.37    -0.028 A 
ATOM     38  CD2 TRP A  63     -20.256   7.639   3.820  1.00 33.79    -0.002 A 
ATOM     39  CE3 TRP A  63     -20.570   8.956   3.478  1.00 32.99     0.014 A 
ATOM     40  CE2 TRP A  63     -18.975   7.142   3.496  1.00 35.84     0.042 A 
ATOM     41  CZ3 TRP A  63     -19.613   9.725   2.833  1.00 32.93     0.001 A 
ATOM     42  CH2 TRP A  63     -18.347   9.201   2.523  1.00 39.24     0.002 A 
ATOM     43  CZ2 TRP A  63     -18.010   7.914   2.847  1.00 37.99     0.030 A 
ATOM     44  NE1 TRP A  63     -18.919   5.846   3.931  1.00 37.98    -0.365 N 
ATOM     45  H06 TRP A  63     -18.123   5.230   3.838  1.00 37.98     0.165 HD
ATOM     46  CD1 TRP A  63     -20.119   5.519   4.513  1.00 38.16     0.096 A 
ENDBRANCH  36  37
ENDBRANCH  35  36
END_RES TRP A  63
BEGIN_RES LEU A  66
REMARK  2 active torsions:
REMARK  status: ('A' for Active; 'I' for Inactive)
REMARK   16  A    between atoms: CA   and  CB  
REMARK   17  A    between atoms: CB   and  CG  
ROOT
ATOM     47  CA  LEU A  66     -20.004   6.489  11.120  1.00 10.90     0.177 C 
ENDROOT
BRANCH  47  48
ATOM     48  CB  LEU A  66     -19.626   5.453  10.069  1.00 13.57     0.038 C 
BRANCH  48  49
ATOM     49  CG  LEU A  66     -18.170   4.990  10.035  1.00  8.73    -0.020 C 
ATOM     50  CD1 LEU A  66     -18.089   3.513   9.748  1.00 14.23     0.009 C 
ATOM     51  CD2 LEU A  66     -17.447   5.765   8.964  1.00  1.92     0.009 C 
ENDBRANCH  48  49
ENDBRANCH  47  48
END_RES LEU A  66
BEGIN_RES PHE A  70
REMARK  2 active torsions:
REMARK  status: ('A' for Active; 'I' for Inactive)
REMARK   18  A    between atoms: CA   and  CB  
REMARK   19  A    between atoms: CB   and  CG  
ROOT
ATOM     52  CA  PHE A  70     -14.974   9.434  13.165  1.00  8.78     0.180 C 
ENDROOT
BRANCH  52  53
ATOM     53  CB  PHE A  70     -14.707   9.132  11.681  1.00  6.33     0.073 C 
BRANCH  53  54
ATOM     54  CG  PHE A  70     -13.935   7.860  11.459  1.00  3.42    -0.056 A 
ATOM     55  CD1 PHE A  70     -13.385   7.162  12.523  1.00 13.88     0.007 A 
ATOM     56  CE1 PHE A  70     -12.624   5.999  12.304  1.00 12.71     0.001 A 
ATOM     57  CZ  PHE A  70     -12.415   5.532  11.007  1.00  4.21     0.000 A 
ATOM     58  CE2 PHE A  70     -12.961   6.218   9.938  1.00  2.83     0.001 A 
ATOM     59  CD2 PHE A  70     -13.719   7.378  10.167  1.00  1.00     0.007 A 
ENDBRANCH  53  54
ENDBRANCH  52  53
END_RES PHE A  70
BEGIN_RES TYR A  73
REMARK  3 active torsions:
REMARK  status: ('A' for Active; 'I' for Inactive)
REMARK   20  A    between atoms: CA   and  CB  
REMARK   21  A    between atoms: CB   and  CG  
REMARK   22  A    between atoms: CZ   and  OH  
ROOT
ATOM     60  CA  TYR A  73     -13.212  10.166  17.260  1.00 12.17     0.180 C 
ENDROOT
BRANCH  60  61
ATOM     61  CB  TYR A  73     -13.301   8.846  16.517  1.00 12.84     0.073 C 
BRANCH  61  62
ATOM     62  CG  TYR A  73     -12.107   7.980  16.720  1.00 15.89    -0.056 A 
ATOM     63  CD1 TYR A  73     -11.336   7.571  15.655  1.00 16.00     0.010 A 
ATOM     64  CE1 TYR A  73     -10.235   6.735  15.839  1.00 13.55     0.037 A 
ATOM     65  CZ  TYR A  73      -9.914   6.310  17.113  1.00 18.13     0.065 A 
ATOM     66  CE2 TYR A  73     -10.667   6.705  18.194  1.00 15.89     0.037 A 
ATOM     67  CD2 TYR A  73     -11.760   7.539  17.992  1.00 21.86     0.010 A 
BRANCH  65  68
ATOM     68  OH  TYR A  73      -8.831   5.491  17.319  1.00 12.12    -0.361 OA
ATOM     69  H08 TYR A  73      -8.718   4.913  16.561  1.00 12.12     0.217 HD
ENDBRANCH  65  68
ENDBRANCH  61  62
ENDBRANCH  60  61
END_RES TYR A  73
BEGIN_RES PHE A  77
REMARK  2 active torsions:
REMARK  status: ('A' for Active; 'I' for Inactive)
REMARK   23  A    between atoms: CA   and  CB  
REMARK   24  A    between atoms: CB   and  CG  
ROOT
ATOM     70  CA  PHE A  77      -8.400  10.581  20.110  1.00 17.17     0.180 C 
ENDROOT
BRANCH  70  71
ATOM     71  CB  PHE A  77      -8.228   9.750  18.851  1.00 10.44     0.073 C 
BRANCH  71  72
ATOM     72  CG  PHE A  77      -6.885   9.100  18.736  1.00  6.07    -0.056 A 
ATOM     73  CD2 PHE A  77      -6.626   7.910  19.377  1.00  9.61     0.007 A 
ATOM     74  CE2 PHE A  77      -5.382   7.299  19.274  1.00  1.00     0.001 A 
ATOM     75  CZ  PHE A  77      -4.383   7.887  18.517  1.00  1.92     0.000 A 
ATOM     76  CE1 PHE A  77      -4.626   9.077  17.868  1.00  9.25     0.001 A 
ATOM     77  CD1 PHE A  77      -5.878   9.680  17.981  1.00  9.63     0.007 A 
ENDBRANCH  71  72
ENDBRANCH  70  71
END_RES PHE A  77
BEGIN_RES LEU A  96
REMARK  2 active torsions:
REMARK  status: ('A' for Active; 'I' for Inactive)
REMARK   25  A    between atoms: CA   and  CB  
REMARK   26  A    between atoms: CB   and  CG  
ROOT
ATOM     78  CA  LEU A  96       0.717   6.481  17.359  1.00 16.08     0.177 C 
ENDROOT
BRANCH  78  79
ATOM     79  CB  LEU A  96      -0.370   7.101  18.230  1.00 18.83     0.038 C 
BRANCH  79  80
ATOM     80  CG  LEU A  96      -0.094   7.036  19.732  1.00 19.03    -0.020 C 
ATOM     81  CD1 LEU A  96      -1.207   7.749  20.464  1.00 28.17     0.009 C 
ATOM     82  CD2 LEU A  96      -0.058   5.599  20.199  1.00 22.01     0.009 C 
ENDBRANCH  79  80
ENDBRANCH  78  79
END_RES LEU A  96
BEGIN_RES VAL A  98
REMARK  1 active torsions:
REMARK  status: ('A' for Active; 'I' for Inactive)
REMARK   27  A    between atoms: CA   and  CB  
ROOT
ATOM     83  CA  VAL A  98      -3.928   2.082  14.897  1.00 19.83     0.180 C 
ENDROOT
BRANCH  83  84
ATOM     84  CB  VAL A  98      -5.203   2.807  15.281  1.00 17.87     0.009 C 
ATOM     85  CG2 VAL A  98      -4.889   4.223  15.689  1.00 29.90     0.012 C 
ATOM     86  CG1 VAL A  98      -5.890   2.063  16.407  1.00 14.79     0.012 C 
ENDBRANCH  83  84
END_RES VAL A  98
BEGIN_RES ASN A 112
REMARK  2 active torsions:
REMARK  status: ('A' for Active; 'I' for Inactive)
REMARK   28  A    between atoms: CA   and  CB  
REMARK   29  A    between atoms: CB   and  CG  
REMARK       I    between atoms: CG   and  ND2 
ROOT
ATOM     87  CA  ASN A 112     -11.790  -8.793  14.069  1.00 37.70     0.185 C 
ENDROOT
BRANCH  87  88
ATOM     88  CB  ASN A 112     -12.992  -7.945  14.465  1.00 26.24     0.137 C 
BRANCH  88  89
ATOM     89  CG  ASN A 112     -13.797  -8.548  15.594  1.00 21.77     0.217 C 
ATOM     90  ND2 ASN A 112     -14.954  -9.116  15.254  1.00  9.31    -0.370 N 
ATOM     91  H04 ASN A 112     -15.538  -9.535  15.963  1.00  9.31     0.159 HD
ATOM     92  H05 ASN A 112     -15.246  -9.127  14.287  1.00  9.31     0.159 HD
ATOM     93  OD1 ASN A 112     -13.389  -8.503  16.761  1.00 21.61    -0.274 OA
ENDBRANCH  88  89
ENDBRANCH  87  88
END_RES ASN A 112
BEGIN_RES PHE A 114
REMARK  2 active torsions:
REMARK  status: ('A' for Active; 'I' for Inactive)
REMARK   30  A    between atoms: CA   and  CB  
REMARK   31  A    between atoms: CB   and  CG  
ROOT
ATOM     94  CA  PHE A 114      -7.754  -3.619  17.012  1.00 26.06     0.180 C 
ENDROOT
BRANCH  94  95
ATOM     95  CB  PHE A 114      -8.890  -3.080  17.867  1.00 19.95     0.073 C 
BRANCH  95  96
ATOM     96  CG  PHE A 114      -8.670  -1.675  18.327  1.00 17.65    -0.056 A 
ATOM     97  CD1 PHE A 114      -9.044  -1.278  19.607  1.00 13.01     0.007 A 
ATOM     98  CE1 PHE A 114      -8.867   0.035  20.025  1.00  6.74     0.001 A 
ATOM     99  CZ  PHE A 114      -8.307   0.972  19.162  1.00  6.27     0.000 A 
ATOM    100  CE2 PHE A 114      -7.931   0.588  17.885  1.00 17.36     0.001 A 
ATOM    101  CD2 PHE A 114      -8.113  -0.736  17.470  1.00 18.39     0.007 A 
ENDBRANCH  95  96
ENDBRANCH  94  95
END_RES PHE A 114
BEGIN_RES VAL A 116
REMARK  1 active torsions:
REMARK  status: ('A' for Active; 'I' for Inactive)
REMARK   32  A    between atoms: CA   and  CB  
ROOT
ATOM    102  CA  VAL A 116      -2.467   0.283  18.565  1.00 13.48     0.180 C 
ENDROOT
BRANCH 102 103
ATOM    103  CB  VAL A 116      -3.101   1.238  19.599  1.00 20.86     0.009 C 
ATOM    104  CG1 VAL A 116      -2.738   2.684  19.250  1.00 25.01     0.012 C 
ATOM    105  CG2 VAL A 116      -4.597   1.041  19.668  1.00 25.34     0.012 C 
ENDBRANCH 102 103
END_RES VAL A 116
BEGIN_RES ILE A 123
REMARK  2 active torsions:
REMARK  status: ('A' for Active; 'I' for Inactive)
REMARK   33  A    between atoms: CA   and  CB  
REMARK   34  A    between atoms: CB   and  CG1 
ROOT
ATOM    106  CA  ILE A 123       1.557  -1.626  23.222  1.00 15.07     0.180 C 
ENDROOT
BRANCH 106 107
ATOM    107  CB  ILE A 123       1.697  -0.112  23.461  1.00 14.41     0.013 C 
ATOM    108  CG2 ILE A 123       3.165   0.261  23.570  1.00 18.35     0.012 C 
BRANCH 107 109
ATOM    109  CG1 ILE A 123       1.037   0.667  22.326  1.00 15.23     0.002 C 
ATOM    110  CD1 ILE A 123       0.541   2.032  22.737  1.00 14.67     0.005 C 
ENDBRANCH 107 109
ENDBRANCH 106 107
END_RES ILE A 123
BEGIN_RES LEU A 124
REMARK  2 active torsions:
REMARK  status: ('A' for Active; 'I' for Inactive)
REMARK   35  A    between atoms: CA   and  CB  
REMARK   36  A    between atoms: CB   and  CG  
ROOT
ATOM    111  CA  LEU A 124      -2.057  -2.686  23.524  1.00 11.86     0.177 C 
ENDROOT
BRANCH 111 112
ATOM    112  CB  LEU A 124      -2.698  -1.652  24.429  1.00 14.60     0.038 C 
BRANCH 112 113
ATOM    113  CG  LEU A 124      -2.617  -0.251  23.843  1.00 16.19    -0.020 C 
ATOM    114  CD1 LEU A 124      -4.001   0.143  23.292  1.00 22.07     0.009 C 
ATOM    115  CD2 LEU A 124      -2.139   0.711  24.902  1.00  9.12     0.009 C 
ENDBRANCH 112 113
ENDBRANCH 111 112
END_RES LEU A 124
BEGIN_RES PHE A 126
REMARK  2 active torsions:
REMARK  status: ('A' for Active; 'I' for Inactive)
REMARK   37  A    between atoms: CA   and  CB  
REMARK   38  A    between atoms: CB   and  CG  
ROOT
ATOM    116  CA  PHE A 126      -8.784  -4.792  22.233  1.00 23.15     0.180 C 
ENDROOT
BRANCH 116 117
ATOM    117  CB  PHE A 126      -9.823  -4.011  21.461  1.00 20.65     0.073 C 
BRANCH 117 118
ATOM    118  CG  PHE A 126     -10.944  -3.534  22.299  1.00 23.65    -0.056 A 
ATOM    119  CD2 PHE A 126     -10.748  -2.540  23.241  1.00 36.63     0.007 A 
ATOM    120  CE2 PHE A 126     -11.812  -2.087  24.033  1.00 36.27     0.001 A 
ATOM    121  CZ  PHE A 126     -13.075  -2.639  23.876  1.00 18.06     0.000 A 
ATOM    122  CE1 PHE A 126     -13.275  -3.630  22.935  1.00  5.50     0.001 A 
ATOM    123  CD1 PHE A 126     -12.211  -4.072  22.149  1.00 15.29     0.007 A 
ENDBRANCH 117 118
ENDBRANCH 116 117
END_RES PHE A 126
BEGIN_RES TRP A 131
REMARK  2 active torsions:
REMARK  status: ('A' for Active; 'I' for Inactive)
REMARK   39  A    between atoms: CA   and  CB  
REMARK   40  A    between atoms: CB   and  CG  
ROOT
ATOM    124  CA  TRP A 131      -8.096  -3.335  26.542  1.00 14.52     0.181 C 
ENDROOT
BRANCH 124 125
ATOM    125  CB  TRP A 131      -7.651  -1.877  26.607  1.00 13.06     0.075 C 
BRANCH 125 126
ATOM    126  CG  TRP A 131      -8.000  -1.065  25.379  1.00 16.97    -0.028 A 
ATOM    127  CD2 TRP A 131      -9.079  -0.136  25.251  1.00 11.34    -0.002 A 
ATOM    128  CE2 TRP A 131      -9.030   0.394  23.947  1.00  5.87     0.042 A 
ATOM    129  CE3 TRP A 131     -10.087   0.300  26.120  1.00  3.80     0.014 A 
ATOM    130  CZ2 TRP A 131      -9.947   1.340  23.489  1.00  1.35     0.030 A 
ATOM    131  NE1 TRP A 131      -7.970  -0.188  23.307  1.00 13.90    -0.365 N 
ATOM    132  CH2 TRP A 131     -10.924   1.751  24.362  1.00  1.00     0.002 A 
ATOM    133  CZ3 TRP A 131     -11.000   1.237  25.670  1.00  1.00     0.001 A 
ATOM    134  CD1 TRP A 131      -7.355  -1.063  24.173  1.00 17.22     0.096 A 
ATOM    135  H07 TRP A 131      -7.684  -0.006  22.356  1.00 13.90     0.165 HD
ENDBRANCH 125 126
ENDBRANCH 124 125
END_RES TRP A 131
BEGIN_RES LEU A 148
REMARK  2 active torsions:
REMARK  status: ('A' for Active; 'I' for Inactive)
REMARK   41  A    between atoms: CA   and  CB  
REMARK   42  A    between atoms: CB   and  CG  
ROOT
ATOM    136  CA  LEU A 148      -9.018   3.259  29.295  1.00 16.99     0.177 C 
ENDROOT
BRANCH 136 137
ATOM    137  CB  LEU A 148      -8.166   2.574  28.236  1.00  6.39     0.038 C 
BRANCH 137 138
ATOM    138  CG  LEU A 148      -7.871   3.249  26.912  1.00  1.00    -0.020 C 
ATOM    139  CD2 LEU A 148      -6.718   2.575  26.229  1.00  1.00     0.009 C 
ATOM    140  CD1 LEU A 148      -7.553   4.708  27.183  1.00  2.71     0.009 C 
ENDBRANCH 137 138
ENDBRANCH 136 137
END_RES LEU A 148
BEGIN_RES THR A 154
REMARK  2 active torsions:
REMARK  status: ('A' for Active; 'I' for Inactive)
REMARK   43  A    between atoms: CA   and  CB  
REMARK   44  A    between atoms: CB   and  OG1 
ROOT
ATOM    141  CA  THR A 154     -15.990   3.959  24.426  1.00 20.45     0.205 C 
ENDROOT
BRANCH 141 142
ATOM    142  CB  THR A 154     -14.777   4.829  24.694  1.00 16.79     0.146 C 
ATOM    143  CG2 THR A 154     -13.620   3.978  25.181  1.00 20.24     0.042 C 
BRANCH 142 144
ATOM    144  OG1 THR A 154     -14.393   5.479  23.476  1.00 18.84    -0.393 OA
ATOM    145  H06 THR A 154     -14.643   4.932  22.728  1.00 18.84     0.210 HD
ENDBRANCH 142 144
ENDBRANCH 141 142
END_RES THR A 154
BEGIN_RES VAL A 158
REMARK  1 active torsions:
REMARK  status: ('A' for Active; 'I' for Inactive)
REMARK   45  A    between atoms: CA   and  CB  
ROOT
ATOM    146  CA  VAL A 158     -15.487  -0.189  19.892  1.00 15.49     0.180 C 
ENDROOT
BRANCH 146 147
ATOM    147  CB  VAL A 158     -14.291  -0.273  20.822  1.00  6.52     0.009 C 
ATOM    148  CG1 VAL A 158     -13.214  -1.157  20.237  1.00  1.00     0.012 C 
ATOM    149  CG2 VAL A 158     -13.769   1.110  21.059  1.00  5.99     0.012 C 
ENDBRANCH 146 147
END_RES VAL A 158
BEGIN_RES LEU A 161
REMARK  2 active torsions:
REMARK  status: ('A' for Active; 'I' for Inactive)
REMARK   46  A    between atoms: CA   and  CB  
REMARK   47  A    between atoms: CB   and  CG  
ROOT
ATOM    150  CA  LEU A 161     -18.031  -1.858  15.935  1.00 13.31     0.177 C 
ENDROOT
BRANCH 150 151
ATOM    151  CB  LEU A 161     -17.046  -0.706  16.001  1.00 14.13     0.038 C 
BRANCH 151 152
ATOM    152  CG  LEU A 161     -17.423   0.550  15.225  1.00 19.39    -0.020 C 
ATOM    153  CD2 LEU A 161     -18.678   1.162  15.800  1.00 27.75     0.009 C 
ATOM    154  CD1 LEU A 161     -17.643   0.183  13.782  1.00 18.59     0.009 C 
ENDBRANCH 151 152
ENDBRANCH 150 151
END_RES LEU A 161
BEGIN_RES GLN A 168
REMARK  3 active torsions:
REMARK  status: ('A' for Active; 'I' for Inactive)
REMARK   48  A    between atoms: CA   and  CB  
REMARK   49  A    between atoms: CB   and  CG  
REMARK   50  A    between atoms: CG   and  CD  
REMARK       I    between atoms: CD   and  NE2 
ROOT
ATOM    155  CA  GLN A 168     -22.035  -6.020   8.155  1.00 30.94     0.177 C 
ENDROOT
BRANCH 155 156
ATOM    156  CB  GLN A 168     -23.054  -5.218   8.946  1.00 41.76     0.044 C 
BRANCH 156 157
ATOM    157  CG  GLN A 168     -24.478  -5.403   8.497  1.00 61.20     0.105 C 
BRANCH 157 158
ATOM    158  CD  GLN A 168     -24.965  -4.234   7.664  1.00 75.49     0.215 C 
ATOM    159  NE2 GLN A 168     -24.801  -4.341   6.345  1.00 85.00    -0.370 N 
ATOM    160  H06 GLN A 168     -25.103  -3.593   5.736  1.00 85.00     0.159 HD
ATOM    161  H07 GLN A 168     -24.374  -5.169   5.954  1.00 85.00     0.159 HD
ATOM    162  OE1 GLN A 168     -25.479  -3.240   8.197  1.00 73.64    -0.274 OA
ENDBRANCH 157 158
ENDBRANCH 156 157
ENDBRANCH 155 156
END_RES GLN A 168
ENDMDL
MODEL 9
REMARK VINA RESULT:      -5.5      2.445      8.250
REMARK  Name = human_CD1d_Tyloxapol_pred.rank_0
REMARK  175 active torsions:
REMARK  status: ('A' for Active; 'I' for Inactive)
REMARK    1  A    between atoms: C_1  and  C_3
REMARK    2  A    between atoms: C_3  and  O_4
REMARK    3  A    between atoms: O_4  and  C_5
REMARK    4  A    between atoms: C_5  and  C_7
REMARK    5  A    between atoms: O_6  and  C_7
REMARK    6  A    between atoms: O_6  and  C_9
REMARK    7  A    between atoms: O_8  and  C_11
REMARK    8  A    between atoms: O_8  and  C_13
REMARK    9  A    between atoms: C_9  and  C_11
REMARK   10  A    between atoms: O_10  and  C_15
REMARK   11  A    between atoms: O_10  and  C_17
REMARK   12  A    between atoms: O_12  and  C_19
REMARK   13  A    between atoms: O_12  and  C_21
REMARK   14  A    between atoms: C_13  and  C_15
REMARK   15  A    between atoms: O_14  and  C_23
REMARK   16  A    between atoms: O_14  and  C_25
REMARK   17  A    between atoms: O_16  and  C_27
REMARK   18  A    between atoms: O_16  and  C_29
REMARK   19  A    between atoms: C_17  and  C_19
REMARK   20  A    between atoms: O_18  and  C_37
REMARK   21  A    between atoms: O_18  and  C_39
REMARK   22  A    between atoms: O_20  and  C_41
REMARK   23  A    between atoms: O_20  and  C_43
REMARK   24  A    between atoms: C_21  and  C_23
REMARK   25  A    between atoms: O_22  and  C_49
REMARK   26  A    between atoms: O_22  and  C_51
REMARK   27  A    between atoms: O_24  and  C_53
REMARK   28  A    between atoms: O_24  and  C_55
REMARK   29  A    between atoms: C_25  and  C_27
REMARK   30  A    between atoms: O_26  and  C_57
REMARK   31  A    between atoms: O_26  and  C_59
REMARK   32  A    between atoms: O_28  and  C_61
REMARK   33  A    between atoms: O_28  and  C_63
REMARK   34  A    between atoms: C_29  and  C_31
REMARK   35  A    between atoms: O_30  and  C_65
REMARK   36  A    between atoms: O_30  and  C_67
REMARK   37  A    between atoms: C_31  and  C_33
REMARK   38  A    between atoms: O_32  and  C_69
REMARK   39  A    between atoms: O_32  and  C_71
REMARK   40  A    between atoms: C_33  and  C_35
REMARK   41  A    between atoms: O_34  and  C_73
REMARK   42  A    between atoms: O_34  and  C_75
REMARK   43  A    between atoms: C_35  and  C_37
REMARK   44  A    between atoms: O_36  and  C_77
REMARK   45  A    between atoms: O_36  and  C_79
REMARK   46  A    between atoms: O_38  and  C_81
REMARK   47  A    between atoms: O_38  and  C_83
REMARK   48  A    between atoms: C_39  and  C_41
REMARK   49  A    between atoms: O_40  and  C_85
REMARK   50  A    between atoms: O_40  and  C_87
REMARK   51  A    between atoms: C_43  and  C_45
REMARK   52  A    between atoms: C_43  and  C_163
REMARK   53  A    between atoms: O_44  and  C_116
REMARK   54  A    between atoms: O_44  and  C_117
REMARK   55  A    between atoms: C_45  and  C_47
REMARK   56  A    between atoms: C_45  and  C_150
REMARK   57  A    between atoms: O_46  and  C_118
REMARK   58  A    between atoms: O_46  and  C_119
REMARK   59  A    between atoms: O_48  and  C_120
REMARK   60  A    between atoms: O_48  and  C_121
REMARK   61  A    between atoms: O_50  and  C_122
REMARK   62  A    between atoms: O_50  and  C_123
REMARK   63  A    between atoms: C_51  and  C_53
REMARK   64  A    between atoms: O_52  and  C_124
REMARK   65  A    between atoms: O_52  and  C_125
REMARK   66  A    between atoms: O_54  and  C_126
REMARK   67  A    between atoms: O_54  and  C_127
REMARK   68  A    between atoms: C_55  and  C_57
REMARK   69  A    between atoms: O_56  and  C_128
REMARK   70  A    between atoms: O_56  and  C_129
REMARK   71  A    between atoms: O_58  and  C_130
REMARK   72  A    between atoms: O_58  and  C_131
REMARK   73  A    between atoms: C_59  and  C_61
REMARK   74  A    between atoms: O_60  and  C_132
REMARK   75  A    between atoms: O_60  and  C_133
REMARK   76  A    between atoms: O_62  and  C_134
REMARK   77  A    between atoms: O_62  and  C_135
REMARK   78  A    between atoms: C_63  and  C_65
REMARK   79  A    between atoms: O_66  and  C_180
REMARK   80  A    between atoms: O_66  and  C_181
REMARK   81  A    between atoms: C_67  and  C_69
REMARK   82  A    between atoms: O_68  and  C_182
REMARK   83  A    between atoms: O_68  and  C_183
REMARK   84  A    between atoms: O_70  and  C_184
REMARK   85  A    between atoms: O_70  and  C_185
REMARK   86  A    between atoms: C_71  and  C_73
REMARK   87  A    between atoms: O_72  and  C_186
REMARK   88  A    between atoms: O_72  and  C_187
REMARK   89  A    between atoms: O_74  and  C_188
REMARK   90  A    between atoms: O_74  and  C_189
REMARK   91  A    between atoms: C_75  and  C_77
REMARK   92  A    between atoms: O_76  and  C_190
REMARK   93  A    between atoms: O_76  and  C_191
REMARK   94  A    between atoms: O_78  and  C_192
REMARK   95  A    between atoms: O_78  and  C_193
REMARK   96  A    between atoms: C_79  and  C_81
REMARK   97  A    between atoms: O_80  and  C_194
REMARK   98  A    between atoms: O_80  and  C_195
REMARK   99  A    between atoms: O_82  and  C_196
REMARK  100  A    between atoms: O_82  and  C_197
REMARK  101  A    between atoms: C_83  and  C_85
REMARK  102  A    between atoms: O_84  and  C_198
REMARK  103  A    between atoms: O_84  and  C_199
REMARK  104  A    between atoms: C_87  and  C_89
REMARK  105  A    between atoms: O_88  and  C_215
REMARK  106  A    between atoms: O_88  and  C_216
REMARK  107  A    between atoms: O_90  and  C_217
REMARK  108  A    between atoms: O_90  and  C_218
REMARK  109  A    between atoms: O_92  and  C_219
REMARK  110  A    between atoms: O_92  and  C_220
REMARK  111  A    between atoms: O_94  and  C_221
REMARK  112  A    between atoms: O_94  and  C_222
REMARK  113  A    between atoms: O_96  and  C_223
REMARK  114  A    between atoms: O_96  and  C_224
REMARK  115  A    between atoms: C_97  and  C_99
REMARK  116  A    between atoms: O_98  and  C_225
REMARK  117  A    between atoms: O_98  and  C_226
REMARK  118  A    between atoms: C_99  and  C_105
REMARK  119  A    between atoms: O_100  and  C_227
REMARK  120  A    between atoms: O_100  and  C_228
REMARK  121  A    between atoms: O_102  and  C_229
REMARK  122  A    between atoms: O_102  and  C_230
REMARK  123  A    between atoms: O_104  and  C_231
REMARK  124  A    between atoms: O_104  and  C_232
REMARK  125  A    between atoms: C_105  and  C_107
REMARK  126  A    between atoms: O_106  and  C_233
REMARK  127  A    between atoms: O_106  and  C_234
REMARK  128  A    between atoms: C_117  and  C_118
REMARK  129  A    between atoms: C_119  and  C_120
REMARK  130  A    between atoms: C_121  and  C_122
REMARK  131  A    between atoms: C_123  and  C_124
REMARK  132  A    between atoms: C_125  and  C_126
REMARK  133  A    between atoms: C_127  and  C_128
REMARK  134  A    between atoms: C_129  and  C_130
REMARK  135  A    between atoms: C_131  and  C_132
REMARK  136  A    between atoms: C_133  and  C_134
REMARK  137  A    between atoms: C_135  and  C_136
REMARK  138  A    between atoms: C_138  and  C_139
REMARK  139  A    between atoms: C_139  and  C_142
REMARK  140  A    between atoms: C_142  and  C_145
REMARK  141  A    between atoms: C_150  and  C_151
REMARK  142  A    between atoms: C_151  and  C_152
REMARK  143  A    between atoms: C_152  and  C_155
REMARK  144  A    between atoms: C_155  and  C_158
REMARK  145  A    between atoms: C_163  and  C_164
REMARK  146  A    between atoms: C_166  and  C_167
REMARK  147  A    between atoms: C_167  and  C_168
REMARK  148  A    between atoms: C_168  and  C_171
REMARK  149  A    between atoms: C_178  and  C_179
REMARK  150  A    between atoms: C_179  and  C_180
REMARK  151  A    between atoms: C_179  and  C_214
REMARK  152  A    between atoms: C_181  and  C_182
REMARK  153  A    between atoms: C_183  and  C_184
REMARK  154  A    between atoms: C_185  and  C_186
REMARK  155  A    between atoms: C_187  and  C_188
REMARK  156  A    between atoms: C_189  and  C_190
REMARK  157  A    between atoms: C_191  and  C_192
REMARK  158  A    between atoms: C_193  and  C_194
REMARK  159  A    between atoms: C_195  and  C_196
REMARK  160  A    between atoms: C_197  and  C_198
REMARK  161  A    between atoms: C_199  and  C_200
REMARK  162  A    between atoms: C_203  and  C_204
REMARK  163  A    between atoms: C_203  and  C_214
REMARK  164  A    between atoms: C_204  and  C_207
REMARK  165  A    between atoms: C_207  and  C_210
REMARK  166  A    between atoms: C_216  and  C_217
REMARK  167  A    between atoms: C_218  and  C_219
REMARK  168  A    between atoms: C_220  and  C_221
REMARK  169  A    between atoms: C_222  and  C_223
REMARK  170  A    between atoms: C_224  and  C_225
REMARK  171  A    between atoms: C_226  and  C_227
REMARK  172  A    between atoms: C_228  and  C_229
REMARK  173  A    between atoms: C_230  and  C_231
REMARK  174  A    between atoms: C_232  and  C_233
REMARK  175  A    between atoms: C_234  and  C_235
REMARK                            x       y       z     vdW  Elec       q    Type
REMARK                         _______ _______ _______ _____ _____    ______ ____
ROOT
ATOM      1  C   UNL     1     -12.405  11.702  27.752  0.00  0.00    +0.000 C 
ENDROOT
BRANCH   1   2
ATOM      2  C   UNL     1     -12.697  10.424  26.300  0.00  0.00    +0.000 C 
BRANCH   2   3
ATOM      3  C   UNL     1     -12.544   8.894  26.579  0.00  0.00    +0.000 C 
ATOM      4  C   UNL     1     -11.638   8.598  27.932  0.00  0.00    +0.000 C 
ATOM      5  C   UNL     1     -10.177   8.334  27.595  0.00  0.00    +0.000 C 
ATOM      6  C   UNL     1     -10.120   6.828  26.712  0.00  0.00    +0.000 C 
ATOM      7  C   UNL     1     -10.457   6.797  25.277  0.00  0.00    +0.000 C 
ATOM      8  C   UNL     1     -11.947   7.707  25.024  0.00  0.00    +0.000 C 
BRANCH   5   9
ATOM      9  C   UNL     1      -9.241   8.329  28.924  0.00  0.00    +0.000 C 
ATOM     10  C   UNL     1      -9.955   8.362  29.909  0.00  0.00    +0.000 C 
ATOM     11  C   UNL     1      -8.237   7.107  28.747  0.00  0.00    +0.000 C 
BRANCH   9  12
ATOM     12  C   UNL     1      -8.207   9.606  28.981  0.00  0.00    +0.000 C 
ATOM     13  C   UNL     1      -8.898  10.901  28.485  0.00  0.00    +0.000 C 
ATOM     14  C   UNL     1      -7.058   9.509  27.724  0.00  0.00    +0.000 C 
BRANCH  12  15
ATOM     15  C   UNL     1      -7.293   9.803  30.149  0.00  0.00    +0.000 C 
ATOM     16  C   UNL     1      -6.150  10.489  29.413  0.00  0.00    +0.000 C 
ATOM     17  C   UNL     1      -6.714   8.593  30.766  0.00  0.00    +0.000 C 
ATOM     18  C   UNL     1      -7.883  10.623  31.216  0.00  0.00    +0.000 C 
ENDBRANCH  12  15
ENDBRANCH   9  12
ENDBRANCH   5   9
BRANCH   7  19
ATOM     19  C   UNL     1     -10.012   5.502  24.474  0.00  0.00    +0.000 C 
BRANCH  19  20
ATOM     20  C   UNL     1     -10.124   5.662  22.915  0.00  0.00    +0.000 C 
ATOM     21  C   UNL     1      -9.357   6.936  22.379  0.00  0.00    +0.000 C 
BRANCH  20  22
ATOM     22  O   UNL     1      -9.415   4.543  22.268  0.00  0.00    +0.000 OA
BRANCH  22  23
ATOM     23  C   UNL     1      -9.645   4.402  20.893  0.00  0.00    +0.000 C 
BRANCH  23  24
ATOM     24  C   UNL     1     -11.000   3.754  20.645  0.00  0.00    +0.000 C 
BRANCH  24  25
ATOM     25  O   UNL     1     -11.038   3.269  19.343  0.00  0.00    +0.000 OA
BRANCH  25  26
ATOM     26  C   UNL     1     -10.075   3.875  18.495  0.00  0.00    +0.000 C 
BRANCH  26  27
ATOM     27  C   UNL     1     -10.254   3.443  17.104  0.00  0.00    +0.000 C 
BRANCH  27  28
ATOM     28  O   UNL     1      -9.063   3.588  16.423  0.00  0.00    +0.000 OA
BRANCH  28  29
ATOM     29  C   UNL     1      -9.086   3.122  15.089  0.00  0.00    +0.000 C 
BRANCH  29  30
ATOM     30  C   UNL     1     -10.280   3.718  14.381  0.00  0.00    +0.000 C 
BRANCH  30  31
ATOM     31  O   UNL     1     -10.185   3.387  13.030  0.00  0.00    +0.000 OA
BRANCH  31  32
ATOM     32  C   UNL     1     -10.965   2.216  12.726  0.00  0.00    +0.000 C 
BRANCH  32  33
ATOM     33  C   UNL     1     -12.360   2.409  13.341  0.00  0.00    +0.000 C 
BRANCH  33  34
ATOM     34  O   UNL     1     -13.308   2.236  12.338  0.00  0.00    +0.000 OA
BRANCH  34  35
ATOM     35  C   UNL     1     -14.656   2.553  12.739  0.00  0.00    +0.000 C 
BRANCH  35  36
ATOM     36  C   UNL     1     -15.443   3.180  11.628  0.00  0.00    +0.000 C 
BRANCH  36  37
ATOM     37  O   UNL     1     -16.140   4.325  12.203  0.00  0.00    +0.000 OA
BRANCH  37  38
ATOM     38  C   UNL     1     -16.911   3.930  13.309  0.00  0.00    +0.000 C 
BRANCH  38  39
ATOM     39  C   UNL     1     -18.366   3.993  13.074  0.00  0.00    +0.000 C 
BRANCH  39  40
ATOM     40  O   UNL     1     -19.042   3.240  14.188  0.00  0.00    +0.000 OA
BRANCH  40  41
ATOM     41  C   UNL     1     -20.209   2.582  13.753  0.00  0.00    +0.000 C 
BRANCH  41  42
ATOM     42  C   UNL     1     -21.275   3.550  13.377  0.00  0.00    +0.000 C 
BRANCH  42  43
ATOM     43  O   UNL     1     -22.320   3.505  14.266  0.00  0.00    +0.000 OA
BRANCH  43  44
ATOM     44  C   UNL     1     -22.693   2.236  14.720  0.00  0.00    +0.000 C 
BRANCH  44  45
ATOM     45  C   UNL     1     -24.168   2.043  14.692  0.00  0.00    +0.000 C 
BRANCH  45  46
ATOM     46  O   UNL     1     -24.617   2.343  13.367  0.00  0.00    +0.000 OA
BRANCH  46  47
ATOM     47  C   UNL     1     -24.325   1.248  12.514  0.00  0.00    +0.000 C 
BRANCH  47  48
ATOM     48  C   UNL     1     -24.984  -0.051  13.140  0.00  0.00    +0.000 C 
BRANCH  48  49
ATOM     49  O   UNL     1     -24.123  -1.124  12.983  0.00  0.00    +0.000 OA
BRANCH  49  50
ATOM     50  C   UNL     1     -24.304  -1.882  11.834  0.00  0.00    +0.000 C 
BRANCH  50  52
ATOM     51  O   UNL     1     -24.138  -4.232  12.209  0.00  0.00    +0.000 OA
ATOM     52  C   UNL     1     -25.099  -3.158  12.177  0.00  0.00    +0.000 C 
ENDBRANCH  50  52
ENDBRANCH  49  50
ENDBRANCH  48  49
ENDBRANCH  47  48
ENDBRANCH  46  47
ENDBRANCH  45  46
ENDBRANCH  44  45
ENDBRANCH  43  44
ENDBRANCH  42  43
ENDBRANCH  41  42
ENDBRANCH  40  41
ENDBRANCH  39  40
ENDBRANCH  38  39
ENDBRANCH  37  38
ENDBRANCH  36  37
ENDBRANCH  35  36
ENDBRANCH  34  35
ENDBRANCH  33  34
ENDBRANCH  32  33
ENDBRANCH  31  32
ENDBRANCH  30  31
ENDBRANCH  29  30
ENDBRANCH  28  29
ENDBRANCH  27  28
ENDBRANCH  26  27
ENDBRANCH  25  26
ENDBRANCH  24  25
ENDBRANCH  23  24
ENDBRANCH  22  23
ENDBRANCH  20  22
ENDBRANCH  19  20
BRANCH  19  53
ATOM     53  C   UNL     1      -8.511   4.955  24.721  0.00  0.00    +0.000 C 
BRANCH  53  55
ATOM     54  C   UNL     1      -7.219   6.944  24.800  0.00  0.00    +0.000 C 
ATOM     55  C   UNL     1      -7.309   5.496  24.478  0.00  0.00    +0.000 C 
BRANCH  55  56
ATOM     56  C   UNL     1      -6.101   4.749  23.917  0.00  0.00    +0.000 C 
ATOM     57  C   UNL     1      -5.120   4.820  25.037  0.00  0.00    +0.000 C 
ATOM     58  C   UNL     1      -6.462   3.305  23.720  0.00  0.00    +0.000 C 
BRANCH  56  59
ATOM     59  C   UNL     1      -5.582   5.403  22.600  0.00  0.00    +0.000 C 
ATOM     60  C   UNL     1      -5.907   6.843  22.518  0.00  0.00    +0.000 C 
ATOM     61  C   UNL     1      -6.252   4.658  21.421  0.00  0.00    +0.000 C 
BRANCH  59  62
ATOM     62  C   UNL     1      -4.008   5.254  22.375  0.00  0.00    +0.000 C 
ATOM     63  C   UNL     1      -3.518   3.948  22.890  0.00  0.00    +0.000 C 
ATOM     64  C   UNL     1      -3.280   6.308  23.173  0.00  0.00    +0.000 C 
ATOM     65  C   UNL     1      -3.584   5.458  21.001  0.00  0.00    +0.000 C 
ENDBRANCH  59  62
ENDBRANCH  56  59
ENDBRANCH  55  56
ENDBRANCH  53  55
ENDBRANCH  19  53
ENDBRANCH   7  19
BRANCH   8  66
ATOM     66  O   UNL     1     -12.736   7.703  23.910  0.00  0.00    +0.000 OA
BRANCH  66  67
ATOM     67  C   UNL     1     -12.455   8.699  22.955  0.00  0.00    +0.000 C 
BRANCH  67  68
ATOM     68  C   UNL     1     -12.662   8.330  21.469  0.00  0.00    +0.000 C 
BRANCH  68  69
ATOM     69  O   UNL     1     -12.980   6.968  21.382  0.00  0.00    +0.000 OA
BRANCH  69  70
ATOM     70  C   UNL     1     -14.338   6.735  20.887  0.00  0.00    +0.000 C 
BRANCH  70  71
ATOM     71  C   UNL     1     -14.510   7.299  19.487  0.00  0.00    +0.000 C 
BRANCH  71  72
ATOM     72  O   UNL     1     -15.049   6.190  18.565  0.00  0.00    +0.000 OA
BRANCH  72  73
ATOM     73  C   UNL     1     -15.393   5.031  19.312  0.00  0.00    +0.000 C 
BRANCH  73  74
ATOM     74  C   UNL     1     -14.648   3.824  18.726  0.00  0.00    +0.000 C 
BRANCH  74  75
ATOM     75  O   UNL     1     -13.863   4.199  17.639  0.00  0.00    +0.000 OA
BRANCH  75  76
ATOM     76  C   UNL     1     -13.555   3.109  16.760  0.00  0.00    +0.000 C 
BRANCH  76  77
ATOM     77  C   UNL     1     -13.532   1.792  17.487  0.00  0.00    +0.000 C 
BRANCH  77  78
ATOM     78  O   UNL     1     -12.752   0.935  16.666  0.00  0.00    +0.000 OA
BRANCH  78  79
ATOM     79  C   UNL     1     -13.461  -0.279  16.248  0.00  0.00    +0.000 C 
BRANCH  79  80
ATOM     80  C   UNL     1     -12.968  -0.614  14.893  0.00  0.00    +0.000 C 
BRANCH  80  81
ATOM     81  O   UNL     1     -14.042  -0.965  13.981  0.00  0.00    +0.000 OA
BRANCH  81  82
ATOM     82  C   UNL     1     -13.672  -1.887  13.006  0.00  0.00    +0.000 C 
BRANCH  82  83
ATOM     83  C   UNL     1     -13.833  -1.277  11.599  0.00  0.00    +0.000 C 
BRANCH  83  84
ATOM     84  O   UNL     1     -15.181  -0.955  11.354  0.00  0.00    +0.000 OA
BRANCH  84  85
ATOM     85  C   UNL     1     -15.492  -0.434  10.161  0.00  0.00    +0.000 C 
BRANCH  85  86
ATOM     86  C   UNL     1     -14.225   0.081   9.446  0.00  0.00    +0.000 C 
BRANCH  86  87
ATOM     87  O   UNL     1     -14.483   0.585   8.161  0.00  0.00    +0.000 OA
BRANCH  87  88
ATOM     88  C   UNL     1     -14.515   1.967   8.087  0.00  0.00    +0.000 C 
BRANCH  88  89
ATOM     89  C   UNL     1     -15.924   2.474   7.825  0.00  0.00    +0.000 C 
BRANCH  89  90
ATOM     90  O   UNL     1     -16.013   2.955   6.488  0.00  0.00    +0.000 OA
BRANCH  90  91
ATOM     91  C   UNL     1     -17.376   3.353   6.227  0.00  0.00    +0.000 C 
BRANCH  91  92
ATOM     92  C   UNL     1     -17.603   4.678   6.909  0.00  0.00    +0.000 C 
BRANCH  92  93
ATOM     93  O   UNL     1     -16.846   5.672   6.225  0.00  0.00    +0.000 OA
BRANCH  93  94
ATOM     94  C   UNL     1     -15.874   6.255   7.005  0.00  0.00    +0.000 C 
BRANCH  94  96
ATOM     95  O   UNL     1     -16.505   6.593   9.300  0.00  0.00    +0.000 OA
ATOM     96  C   UNL     1     -16.501   7.201   8.035  0.00  0.00    +0.000 C 
ENDBRANCH  94  96
ENDBRANCH  93  94
ENDBRANCH  92  93
ENDBRANCH  91  92
ENDBRANCH  90  91
ENDBRANCH  89  90
ENDBRANCH  88  89
ENDBRANCH  87  88
ENDBRANCH  86  87
ENDBRANCH  85  86
ENDBRANCH  84  85
ENDBRANCH  83  84
ENDBRANCH  82  83
ENDBRANCH  81  82
ENDBRANCH  80  81
ENDBRANCH  79  80
ENDBRANCH  78  79
ENDBRANCH  77  78
ENDBRANCH  76  77
ENDBRANCH  75  76
ENDBRANCH  74  75
ENDBRANCH  73  74
ENDBRANCH  72  73
ENDBRANCH  71  72
ENDBRANCH  70  71
ENDBRANCH  69  70
ENDBRANCH  68  69
ENDBRANCH  67  68
ENDBRANCH  66  67
ENDBRANCH   8  66
ENDBRANCH   2   3
ENDBRANCH   1   2
BRANCH   1  97
ATOM     97  C   UNL     1     -13.311  11.950  28.943  0.00  0.00    +0.000 C 
BRANCH  97  98
ATOM     98  C   UNL     1     -14.307  10.707  29.225  0.00  0.00    +0.000 C 
ATOM     99  C   UNL     1     -15.679  10.873  28.506  0.00  0.00    +0.000 C 
ATOM    100  C   UNL     1     -16.743   9.707  28.717  0.00  0.00    +0.000 C 
ATOM    101  C   UNL     1     -18.038   9.039  28.559  0.00  0.00    +0.000 C 
ATOM    102  C   UNL     1     -18.772   8.244  29.612  0.00  0.00    +0.000 C 
ATOM    103  C   UNL     1     -20.076   7.670  29.359  0.00  0.00    +0.000 C 
ATOM    104  C   UNL     1     -20.663   7.958  28.078  0.00  0.00    +0.000 C 
ATOM    105  C   UNL     1     -20.000   8.611  27.046  0.00  0.00    +0.000 C 
ATOM    106  C   UNL     1     -18.755   9.056  27.374  0.00  0.00    +0.000 C 
ATOM    107  C   UNL     1     -16.541   9.297  29.422  0.00  0.00    +0.000 C 
ATOM    108  C   UNL     1     -15.453   8.860  30.093  0.00  0.00    +0.000 C 
ATOM    109  C   UNL     1     -14.059   9.402  29.746  0.00  0.00    +0.000 C 
BRANCH 103 110
ATOM    110  C   UNL     1     -20.724   6.787  30.422  0.00  0.00    +0.000 C 
ATOM    111  C   UNL     1     -21.564   5.768  29.600  0.00  0.00    +0.000 C 
ATOM    112  C   UNL     1     -19.697   5.987  31.079  0.00  0.00    +0.000 C 
BRANCH 110 113
ATOM    113  C   UNL     1     -21.645   7.384  31.511  0.00  0.00    +0.000 C 
ATOM    114  C   UNL     1     -22.662   8.213  30.793  0.00  0.00    +0.000 C 
ATOM    115  C   UNL     1     -22.318   6.240  32.276  0.00  0.00    +0.000 C 
BRANCH 113 116
ATOM    116  C   UNL     1     -20.901   8.252  32.621  0.00  0.00    +0.000 C 
ATOM    117  C   UNL     1     -21.844   8.616  33.751  0.00  0.00    +0.000 C 
ATOM    118  C   UNL     1     -20.483   9.566  32.064  0.00  0.00    +0.000 C 
ATOM    119  C   UNL     1     -19.682   7.539  33.136  0.00  0.00    +0.000 C 
ENDBRANCH 113 116
ENDBRANCH 110 113
ENDBRANCH 103 110
BRANCH 108 120
ATOM    120  C   UNL     1     -15.681   8.301  31.547  0.00  0.00    +0.000 C 
ATOM    121  C   UNL     1     -16.326   6.915  31.388  0.00  0.00    +0.000 C 
ATOM    122  C   UNL     1     -16.726   9.150  32.177  0.00  0.00    +0.000 C 
BRANCH 120 123
ATOM    123  C   UNL     1     -14.367   8.006  32.462  0.00  0.00    +0.000 C 
ATOM    124  C   UNL     1     -14.590   6.997  33.500  0.00  0.00    +0.000 C 
ATOM    125  C   UNL     1     -13.242   7.461  31.617  0.00  0.00    +0.000 C 
BRANCH 123 126
ATOM    126  C   UNL     1     -13.841   9.246  33.265  0.00  0.00    +0.000 C 
ATOM    127  C   UNL     1     -12.489   9.596  32.747  0.00  0.00    +0.000 C 
ATOM    128  C   UNL     1     -13.643   8.904  34.716  0.00  0.00    +0.000 C 
ATOM    129  C   UNL     1     -14.821  10.356  33.215  0.00  0.00    +0.000 C 
ENDBRANCH 123 126
ENDBRANCH 120 123
ENDBRANCH 108 120
BRANCH 106 130
ATOM    130  O   UNL     1     -17.947   9.517  26.362  0.00  0.00    +0.000 OA
BRANCH 130 131
ATOM    131  C   UNL     1     -17.277   8.569  25.497  0.00  0.00    +0.000 C 
BRANCH 131 132
ATOM    132  C   UNL     1     -16.019   9.243  24.981  0.00  0.00    +0.000 C 
BRANCH 132 133
ATOM    133  O   UNL     1     -15.913   9.072  23.611  0.00  0.00    +0.000 OA
BRANCH 133 134
ATOM    134  C   UNL     1     -15.784  10.294  22.902  0.00  0.00    +0.000 C 
BRANCH 134 135
ATOM    135  C   UNL     1     -16.060  10.068  21.457  0.00  0.00    +0.000 C 
BRANCH 135 136
ATOM    136  O   UNL     1     -16.983   9.387  21.437  0.00  0.00    +0.000 OA
BRANCH 136 137
ATOM    137  C   UNL     1     -17.916   9.766  20.487  0.00  0.00    +0.000 C 
BRANCH 137 138
ATOM    138  C   UNL     1     -17.632   9.170  19.066  0.00  0.00    +0.000 C 
BRANCH 138 139
ATOM    139  O   UNL     1     -18.563   9.672  18.223  0.00  0.00    +0.000 OA
BRANCH 139 140
ATOM    140  C   UNL     1     -19.838   9.004  18.340  0.00  0.00    +0.000 C 
BRANCH 140 141
ATOM    141  C   UNL     1     -20.821   9.656  17.418  0.00  0.00    +0.000 C 
BRANCH 141 142
ATOM    142  O   UNL     1     -22.066   9.795  18.067  0.00  0.00    +0.000 OA
BRANCH 142 143
ATOM    143  C   UNL     1     -22.551   8.576  18.623  0.00  0.00    +0.000 C 
BRANCH 143 144
ATOM    144  C   UNL     1     -23.588   8.885  19.736  0.00  0.00    +0.000 C 
BRANCH 144 145
ATOM    145  O   UNL     1     -24.745   8.039  19.632  0.00  0.00    +0.000 OA
BRANCH 145 146
ATOM    146  C   UNL     1     -25.851   8.478  18.828  0.00  0.00    +0.000 C 
BRANCH 146 147
ATOM    147  C   UNL     1     -25.890   9.977  18.675  0.00  0.00    +0.000 C 
BRANCH 147 148
ATOM    148  O   UNL     1     -25.853  10.277  17.267  0.00  0.00    +0.000 OA
BRANCH 148 149
ATOM    149  C   UNL     1     -25.582   9.173  16.419  0.00  0.00    +0.000 C 
BRANCH 149 150
ATOM    150  C   UNL     1     -24.799   9.638  15.209  0.00  0.00    +0.000 C 
BRANCH 150 151
ATOM    151  O   UNL     1     -25.647   9.534  14.057  0.00  0.00    +0.000 OA
BRANCH 151 152
ATOM    152  C   UNL     1     -25.887  10.708  13.363  0.00  0.00    +0.000 C 
BRANCH 152 153
ATOM    153  C   UNL     1     -24.594  11.381  12.939  0.00  0.00    +0.000 C 
BRANCH 153 154
ATOM    154  O   UNL     1     -24.549  12.700  13.480  0.00  0.00    +0.000 OA
BRANCH 154 155
ATOM    155  C   UNL     1     -25.791  13.341  13.534  0.00  0.00    +0.000 C 
BRANCH 155 156
ATOM    156  C   UNL     1     -25.861  14.464  12.468  0.00  0.00    +0.000 C 
BRANCH 156 157
ATOM    157  O   UNL     1     -24.518  14.882  12.205  0.00  0.00    +0.000 OA
BRANCH 157 158
ATOM    158  C   UNL     1     -24.298  16.236  12.503  0.00  0.00    +0.000 C 
BRANCH 158 160
ATOM    159  O   UNL     1     -23.336  15.784  14.737  0.00  0.00    +0.000 OA
ATOM    160  C   UNL     1     -23.070  16.254  13.302  0.00  0.00    +0.000 C 
ENDBRANCH 158 160
ENDBRANCH 157 158
ENDBRANCH 156 157
ENDBRANCH 155 156
ENDBRANCH 154 155
ENDBRANCH 153 154
ENDBRANCH 152 153
ENDBRANCH 151 152
ENDBRANCH 150 151
ENDBRANCH 149 150
ENDBRANCH 148 149
ENDBRANCH 147 148
ENDBRANCH 146 147
ENDBRANCH 145 146
ENDBRANCH 144 145
ENDBRANCH 143 144
ENDBRANCH 142 143
ENDBRANCH 141 142
ENDBRANCH 140 141
ENDBRANCH 139 140
ENDBRANCH 138 139
ENDBRANCH 137 138
ENDBRANCH 136 137
ENDBRANCH 135 136
ENDBRANCH 134 135
ENDBRANCH 133 134
ENDBRANCH 132 133
ENDBRANCH 131 132
ENDBRANCH 130 131
ENDBRANCH 106 130
BRANCH  99 161
ATOM    161  O   UNL     1     -16.257  12.115  28.410  0.00  0.00    +0.000 OA
BRANCH 161 162
ATOM    162  C   UNL     1     -16.619  12.820  29.603  0.00  0.00    +0.000 C 
BRANCH 162 163
ATOM    163  C   UNL     1     -18.106  13.067  29.797  0.00  0.00    +0.000 C 
BRANCH 163 164
ATOM    164  O   UNL     1     -18.418  14.401  29.534  0.00  0.00    +0.000 OA
BRANCH 164 165
ATOM    165  C   UNL     1     -19.181  14.624  28.378  0.00  0.00    +0.000 C 
BRANCH 165 166
ATOM    166  C   UNL     1     -18.346  15.116  27.193  0.00  0.00    +0.000 C 
BRANCH 166 167
ATOM    167  O   UNL     1     -18.796  14.446  25.989  0.00  0.00    +0.000 OA
BRANCH 167 168
ATOM    168  C   UNL     1     -18.895  13.053  26.194  0.00  0.00    +0.000 C 
BRANCH 168 169
ATOM    169  C   UNL     1     -19.790  12.411  25.144  0.00  0.00    +0.000 C 
BRANCH 169 170
ATOM    170  O   UNL     1     -19.031  11.623  24.280  0.00  0.00    +0.000 OA
BRANCH 170 171
ATOM    171  C   UNL     1     -19.781  10.620  23.624  0.00  0.00    +0.000 C 
BRANCH 171 172
ATOM    172  C   UNL     1     -21.263  10.598  24.117  0.00  0.00    +0.000 C 
BRANCH 172 173
ATOM    173  O   UNL     1     -22.012   9.857  23.168  0.00  0.00    +0.000 OA
BRANCH 173 174
ATOM    174  C   UNL     1     -22.997   9.020  23.850  0.00  0.00    +0.000 C 
BRANCH 174 175
ATOM    175  C   UNL     1     -24.395   9.588  23.616  0.00  0.00    +0.000 C 
BRANCH 175 176
ATOM    176  O   UNL     1     -25.141   8.630  22.939  0.00  0.00    +0.000 OA
BRANCH 176 177
ATOM    177  C   UNL     1     -25.120   7.369  23.588  0.00  0.00    +0.000 C 
BRANCH 177 178
ATOM    178  C   UNL     1     -25.607   6.343  22.573  0.00  0.00    +0.000 C 
BRANCH 178 179
ATOM    179  O   UNL     1     -25.255   5.042  23.006  0.00  0.00    +0.000 OA
BRANCH 179 180
ATOM    180  C   UNL     1     -25.596   4.012  22.040  0.00  0.00    +0.000 C 
BRANCH 180 181
ATOM    181  C   UNL     1     -25.316   4.518  20.625  0.00  0.00    +0.000 C 
BRANCH 181 182
ATOM    182  O   UNL     1     -24.197   3.870  20.085  0.00  0.00    +0.000 OA
BRANCH 182 183
ATOM    183  C   UNL     1     -23.838   2.654  20.831  0.00  0.00    +0.000 C 
BRANCH 183 184
ATOM    184  C   UNL     1     -22.336   2.373  20.865  0.00  0.00    +0.000 C 
BRANCH 184 185
ATOM    185  O   UNL     1     -22.119   1.504  21.929  0.00  0.00    +0.000 OA
BRANCH 185 186
ATOM    186  C   UNL     1     -23.325   1.199  22.650  0.00  0.00    +0.000 C 
BRANCH 186 187
ATOM    187  C   UNL     1     -23.295  -0.226  23.158  0.00  0.00    +0.000 C 
BRANCH 187 188
ATOM    188  O   UNL     1     -24.100  -1.016  22.186  0.00  0.00    +0.000 OA
BRANCH 188 189
ATOM    189  C   UNL     1     -23.593  -2.365  22.109  0.00  0.00    +0.000 C 
BRANCH 189 191
ATOM    190  O   UNL     1     -22.812  -3.984  23.649  0.00  0.00    +0.000 OA
ATOM    191  C   UNL     1     -22.821  -2.621  23.383  0.00  0.00    +0.000 C 
ENDBRANCH 189 191
ENDBRANCH 188 189
ENDBRANCH 187 188
ENDBRANCH 186 187
ENDBRANCH 185 186
ENDBRANCH 184 185
ENDBRANCH 183 184
ENDBRANCH 182 183
ENDBRANCH 181 182
ENDBRANCH 180 181
ENDBRANCH 179 180
ENDBRANCH 178 179
ENDBRANCH 177 178
ENDBRANCH 176 177
ENDBRANCH 175 176
ENDBRANCH 174 175
ENDBRANCH 173 174
ENDBRANCH 172 173
ENDBRANCH 171 172
ENDBRANCH 170 171
ENDBRANCH 169 170
ENDBRANCH 168 169
ENDBRANCH 167 168
ENDBRANCH 166 167
ENDBRANCH 165 166
ENDBRANCH 164 165
ENDBRANCH 163 164
ENDBRANCH 162 163
ENDBRANCH 161 162
ENDBRANCH  99 161
ENDBRANCH  97  98
BRANCH  97 192
ATOM    192  C   UNL     1     -12.351  12.675  29.713  0.00  0.00    +0.000 C 
BRANCH 192 193
ATOM    193  C   UNL     1     -12.622  13.677  30.714  0.00  0.00    +0.000 C 
ATOM    194  C   UNL     1     -13.549  13.436  31.809  0.00  0.00    +0.000 C 
BRANCH 193 195
ATOM    195  C   UNL     1     -11.992  15.011  30.673  0.00  0.00    +0.000 C 
ATOM    196  C   UNL     1     -12.140  15.522  29.230  0.00  0.00    +0.000 C 
ATOM    197  C   UNL     1     -12.734  16.010  31.569  0.00  0.00    +0.000 C 
BRANCH 195 198
ATOM    198  C   UNL     1     -10.437  14.913  31.100  0.00  0.00    +0.000 C 
ATOM    199  C   UNL     1     -10.139  13.653  31.787  0.00  0.00    +0.000 C 
ATOM    200  C   UNL     1     -10.064  16.064  31.977  0.00  0.00    +0.000 C 
BRANCH 198 201
ATOM    201  C   UNL     1      -9.344  14.994  29.969  0.00  0.00    +0.000 C 
ATOM    202  C   UNL     1      -8.672  16.331  29.892  0.00  0.00    +0.000 C 
ATOM    203  C   UNL     1      -9.919  14.765  28.596  0.00  0.00    +0.000 C 
ATOM    204  C   UNL     1      -8.264  14.062  30.251  0.00  0.00    +0.000 C 
ENDBRANCH 198 201
ENDBRANCH 195 198
ENDBRANCH 193 195
ENDBRANCH 192 193
ENDBRANCH  97 192
ENDBRANCH   1  97
BRANCH   1 205
ATOM    205  O   UNL     1     -12.336  12.831  26.905  0.00  0.00    +0.000 OA
BRANCH 205 206
ATOM    206  C   UNL     1     -13.599  13.342  26.544  0.00  0.00    +0.000 C 
BRANCH 206 207
ATOM    207  C   UNL     1     -13.563  14.027  25.208  0.00  0.00    +0.000 C 
BRANCH 207 208
ATOM    208  O   UNL     1     -14.354  13.325  24.242  0.00  0.00    +0.000 OA
BRANCH 208 209
ATOM    209  C   UNL     1     -15.753  13.678  24.283  0.00  0.00    +0.000 C 
BRANCH 209 210
ATOM    210  C   UNL     1     -15.944  15.132  23.929  0.00  0.00    +0.000 C 
BRANCH 210 211
ATOM    211  C   UNL     1     -16.714  15.338  22.624  0.00  0.00    +0.000 C 
BRANCH 211 212
ATOM    212  C   UNL     1     -17.803  14.301  22.458  0.00  0.00    +0.000 C 
BRANCH 212 213
ATOM    213  C   UNL     1     -19.155  14.935  22.486  0.00  0.00    +0.000 C 
BRANCH 213 214
ATOM    214  O   UNL     1     -20.089  14.157  21.895  0.00  0.00    +0.000 OA
BRANCH 214 215
ATOM    215  C   UNL     1     -19.495  13.106  21.083  0.00  0.00    +0.000 C 
BRANCH 215 216
ATOM    216  C   UNL     1     -20.447  12.580  20.030  0.00  0.00    +0.000 C 
BRANCH 216 217
ATOM    217  O   UNL     1     -21.495  11.949  20.616  0.00  0.00    +0.000 OA
BRANCH 217 218
ATOM    218  C   UNL     1     -22.917  12.329  20.861  0.00  0.00    +0.000 C 
BRANCH 218 219
ATOM    219  C   UNL     1     -23.475  12.763  19.464  0.00  0.00    +0.000 C 
BRANCH 219 220
ATOM    220  O   UNL     1     -23.534  14.137  19.368  0.00  0.00    +0.000 OA
BRANCH 220 221
ATOM    221  C   UNL     1     -23.447  14.868  20.605  0.00  0.00    +0.000 C 
BRANCH 221 222
ATOM    222  C   UNL     1     -22.592  16.114  20.387  0.00  0.00    +0.000 C 
BRANCH 222 223
ATOM    223  O   UNL     1     -21.561  15.880  19.462  0.00  0.00    +0.000 OA
BRANCH 223 224
ATOM    224  C   UNL     1     -21.041  17.051  18.860  0.00  0.00    +0.000 C 
BRANCH 224 225
ATOM    225  C   UNL     1     -19.642  16.714  18.336  0.00  0.00    +0.000 C 
BRANCH 225 226
ATOM    226  O   UNL     1     -19.621  16.708  16.911  0.00  0.00    +0.000 OA
BRANCH 226 227
ATOM    227  C   UNL     1     -18.567  17.480  16.365  0.00  0.00    +0.000 C 
BRANCH 227 228
ATOM    228  C   UNL     1     -17.826  16.634  15.361  0.00  0.00    +0.000 C 
BRANCH 228 229
ATOM    229  O   UNL     1     -16.540  16.286  15.799  0.00  0.00    +0.000 OA
BRANCH 229 230
ATOM    230  C   UNL     1     -15.534  17.040  15.177  0.00  0.00    +0.000 C 
BRANCH 230 231
ATOM    231  C   UNL     1     -15.212  18.259  15.987  0.00  0.00    +0.000 C 
BRANCH 231 232
ATOM    232  O   UNL     1     -14.744  17.860  17.252  0.00  0.00    +0.000 OA
BRANCH 232 233
ATOM    233  C   UNL     1     -15.502  18.384  18.318  0.00  0.00    +0.000 C 
BRANCH 233 234
ATOM    234  C   UNL     1     -16.107  17.261  19.133  0.00  0.00    +0.000 C 
ATOM    235  O   UNL     1     -15.071  16.541  19.763  0.00  0.00    +0.000 OA
ENDBRANCH 233 234
ENDBRANCH 232 233
ENDBRANCH 231 232
ENDBRANCH 230 231
ENDBRANCH 229 230
ENDBRANCH 228 229
ENDBRANCH 227 228
ENDBRANCH 226 227
ENDBRANCH 225 226
ENDBRANCH 224 225
ENDBRANCH 223 224
ENDBRANCH 222 223
ENDBRANCH 221 222
ENDBRANCH 220 221
ENDBRANCH 219 220
ENDBRANCH 218 219
ENDBRANCH 217 218
ENDBRANCH 216 217
ENDBRANCH 215 216
ENDBRANCH 214 215
ENDBRANCH 213 214
ENDBRANCH 212 213
ENDBRANCH 211 212
ENDBRANCH 210 211
ENDBRANCH 209 210
ENDBRANCH 208 209
ENDBRANCH 207 208
ENDBRANCH 206 207
ENDBRANCH 205 206
ENDBRANCH   1 205
TORSDOF 175
BEGIN_RES LEU A  10
REMARK  2 active torsions:
REMARK  status: ('A' for Active; 'I' for Inactive)
REMARK    1  A    between atoms: CA   and  CB  
REMARK    2  A    between atoms: CB   and  CG  
ROOT
ATOM      1  CA  LEU A  10     -10.775  -4.871   5.898  1.00 25.14     0.177 C 
ENDROOT
BRANCH   1   2
ATOM      2  CB  LEU A  10     -12.191  -4.387   6.226  1.00 17.87     0.038 C 
BRANCH   2   3
ATOM      3  CG  LEU A  10     -12.897  -3.669   5.074  1.00 24.95    -0.020 C 
ATOM      4  CD2 LEU A  10     -13.167  -4.649   3.983  1.00 26.38     0.009 C 
ATOM      5  CD1 LEU A  10     -12.058  -2.512   4.559  1.00 28.12     0.009 C 
ENDBRANCH   2   3
ENDBRANCH   1   2
END_RES LEU A  10
BEGIN_RES CYS A  12
REMARK  2 active torsions:
REMARK  status: ('A' for Active; 'I' for Inactive)
REMARK    3  A    between atoms: CA   and  CB  
REMARK    4  A    between atoms: CB   and  SG  
ROOT
ATOM      6  CA  CYS A  12      -8.555   0.470   8.750  1.00 23.16     0.185 C 
ENDROOT
BRANCH   6   7
ATOM      7  CB  CYS A  12      -9.828   0.763   9.555  1.00 20.43     0.105 C 
BRANCH   7   8
ATOM      8  SG  CYS A  12     -10.893   2.091   8.913  1.00 24.64    -0.180 SA
ATOM      9  H04 CYS A  12     -12.121   1.608   8.685  1.00 24.64     0.101 HD
ENDBRANCH   7   8
ENDBRANCH   6   7
END_RES CYS A  12
BEGIN_RES GLN A  14
REMARK  3 active torsions:
REMARK  status: ('A' for Active; 'I' for Inactive)
REMARK    5  A    between atoms: CA   and  CB  
REMARK    6  A    between atoms: CB   and  CG  
REMARK    7  A    between atoms: CG   and  CD  
REMARK       I    between atoms: CD   and  NE2 
ROOT
ATOM     10  CA  GLN A  14      -4.645   5.402  11.377  1.00 10.43     0.177 C 
ENDROOT
BRANCH  10  11
ATOM     11  CB  GLN A  14      -5.541   5.549  12.608  1.00 14.45     0.044 C 
BRANCH  11  12
ATOM     12  CG  GLN A  14      -6.342   6.830  12.639  1.00 13.74     0.105 C 
BRANCH  12  13
ATOM     13  CD  GLN A  14      -5.801   7.825  13.638  1.00 16.29     0.215 C 
ATOM     14  NE2 GLN A  14      -6.691   8.525  14.308  1.00  8.57    -0.370 N 
ATOM     15  H06 GLN A  14      -6.388   9.204  14.991  1.00  8.57     0.159 HD
ATOM     16  H07 GLN A  14      -7.676   8.383  14.140  1.00  8.57     0.159 HD
ATOM     17  OE1 GLN A  14      -4.599   7.959  13.807  1.00 23.55    -0.274 OA
ENDBRANCH  12  13
ENDBRANCH  11  12
ENDBRANCH  10  11
END_RES GLN A  14
BEGIN_RES SER A  16
REMARK  2 active torsions:
REMARK  status: ('A' for Active; 'I' for Inactive)
REMARK    8  A    between atoms: CA   and  CB  
REMARK    9  A    between atoms: CB   and  OG  
ROOT
ATOM     18  CA  SER A  16      -1.305  10.019  14.282  1.00  2.34     0.200 C 
ENDROOT
BRANCH  18  19
ATOM     19  CB  SER A  16      -2.242   9.935  15.479  1.00  3.12     0.199 C 
BRANCH  19  20
ATOM     20  OG  SER A  16      -2.399   8.588  15.888  1.00  1.00    -0.398 OA
ATOM     21  H04 SER A  16      -1.594   8.100  15.700  1.00  1.00     0.209 HD
ENDBRANCH  19  20
ENDBRANCH  18  19
END_RES SER A  16
BEGIN_RES LEU A  32
REMARK  2 active torsions:
REMARK  status: ('A' for Active; 'I' for Inactive)
REMARK   10  A    between atoms: CA   and  CB  
REMARK   11  A    between atoms: CB   and  CG  
ROOT
ATOM     22  CA  LEU A  32     -10.272  -4.106   1.587  1.00 16.16     0.177 C 
ENDROOT
BRANCH  22  23
ATOM     23  CB  LEU A  32     -11.613  -3.858   0.880  1.00 12.35     0.038 C 
BRANCH  23  24
ATOM     24  CG  LEU A  32     -12.536  -5.092   0.951  1.00  9.77    -0.020 C 
ATOM     25  CD1 LEU A  32     -13.966  -4.694   0.670  1.00  4.35     0.009 C 
ATOM     26  CD2 LEU A  32     -12.099  -6.146  -0.032  1.00 10.60     0.009 C 
ENDBRANCH  23  24
ENDBRANCH  22  23
END_RES LEU A  32
BEGIN_RES HIS A  38
REMARK  2 active torsions:
REMARK  status: ('A' for Active; 'I' for Inactive)
REMARK   12  A    between atoms: CA   and  CB  
REMARK   13  A    between atoms: CB   and  CG  
ROOT
ATOM     27  CA  HIS A  38     -10.959   4.941   1.621  1.00 16.94     0.182 C 
ENDROOT
BRANCH  27  28
ATOM     28  CB  HIS A  38     -11.810   4.840   2.881  1.00 15.47     0.095 C 
BRANCH  28  29
ATOM     29  CG  HIS A  38     -13.276   4.998   2.634  1.00 18.62     0.053 A 
ATOM     30  CD2 HIS A  38     -13.956   5.333   1.512  1.00 15.06     0.116 A 
ATOM     31  NE2 HIS A  38     -15.291   5.304   1.828  1.00 18.12    -0.359 N 
ATOM     32  CE1 HIS A  38     -15.426   4.965   3.096  1.00 14.78     0.207 A 
ATOM     33  H06 HIS A  38     -16.048   5.510   1.192  1.00 18.12     0.166 HD
ATOM     34  ND1 HIS A  38     -14.226   4.776   3.606  1.00 16.58    -0.247 NA
ENDBRANCH  28  29
ENDBRANCH  27  28
END_RES HIS A  38
BEGIN_RES TRP A  63
REMARK  2 active torsions:
REMARK  status: ('A' for Active; 'I' for Inactive)
REMARK   14  A    between atoms: CA   and  CB  
REMARK   15  A    between atoms: CB   and  CG  
ROOT
ATOM     35  CA  TRP A  63     -22.437   6.257   6.543  1.00 27.04     0.181 C 
ENDROOT
BRANCH  35  36
ATOM     36  CB  TRP A  63     -22.360   6.642   5.068  1.00 31.37     0.075 C 
BRANCH  36  37
ATOM     37  CG  TRP A  63     -20.972   6.560   4.468  1.00 34.37    -0.028 A 
ATOM     38  CD2 TRP A  63     -20.240   7.614   3.828  1.00 33.79    -0.002 A 
ATOM     39  CE3 TRP A  63     -20.528   8.942   3.507  1.00 32.99     0.014 A 
ATOM     40  CE2 TRP A  63     -18.970   7.096   3.493  1.00 35.84     0.042 A 
ATOM     41  CZ3 TRP A  63     -19.557   9.701   2.869  1.00 32.93     0.001 A 
ATOM     42  CH2 TRP A  63     -18.303   9.156   2.548  1.00 39.24     0.002 A 
ATOM     43  CZ2 TRP A  63     -17.992   7.858   2.852  1.00 37.99     0.030 A 
ATOM     44  NE1 TRP A  63     -18.939   5.793   3.908  1.00 37.98    -0.365 N 
ATOM     45  H06 TRP A  63     -18.157   5.162   3.804  1.00 37.98     0.165 HD
ATOM     46  CD1 TRP A  63     -20.144   5.482   4.489  1.00 38.16     0.096 A 
ENDBRANCH  36  37
ENDBRANCH  35  36
END_RES TRP A  63
BEGIN_RES LEU A  66
REMARK  2 active torsions:
REMARK  status: ('A' for Active; 'I' for Inactive)
REMARK   16  A    between atoms: CA   and  CB  
REMARK   17  A    between atoms: CB   and  CG  
ROOT
ATOM     47  CA  LEU A  66     -20.004   6.489  11.120  1.00 10.90     0.177 C 
ENDROOT
BRANCH  47  48
ATOM     48  CB  LEU A  66     -19.626   5.453  10.069  1.00 13.57     0.038 C 
BRANCH  48  49
ATOM     49  CG  LEU A  66     -19.941   3.991  10.383  1.00  8.73    -0.020 C 
ATOM     50  CD1 LEU A  66     -21.201   3.556   9.681  1.00 14.23     0.009 C 
ATOM     51  CD2 LEU A  66     -18.778   3.144   9.931  1.00  1.92     0.009 C 
ENDBRANCH  48  49
ENDBRANCH  47  48
END_RES LEU A  66
BEGIN_RES PHE A  70
REMARK  2 active torsions:
REMARK  status: ('A' for Active; 'I' for Inactive)
REMARK   18  A    between atoms: CA   and  CB  
REMARK   19  A    between atoms: CB   and  CG  
ROOT
ATOM     52  CA  PHE A  70     -14.974   9.434  13.165  1.00  8.78     0.180 C 
ENDROOT
BRANCH  52  53
ATOM     53  CB  PHE A  70     -14.707   9.132  11.681  1.00  6.33     0.073 C 
BRANCH  53  54
ATOM     54  CG  PHE A  70     -13.928   7.864  11.459  1.00  3.42    -0.056 A 
ATOM     55  CD1 PHE A  70     -13.590   7.446  10.181  1.00 13.88     0.007 A 
ATOM     56  CE1 PHE A  70     -12.904   6.236   9.978  1.00 12.71     0.001 A 
ATOM     57  CZ  PHE A  70     -12.552   5.437  11.066  1.00  4.21     0.000 A 
ATOM     58  CE2 PHE A  70     -12.882   5.845  12.346  1.00  2.83     0.001 A 
ATOM     59  CD2 PHE A  70     -13.568   7.056  12.538  1.00  1.00     0.007 A 
ENDBRANCH  53  54
ENDBRANCH  52  53
END_RES PHE A  70
BEGIN_RES TYR A  73
REMARK  3 active torsions:
REMARK  status: ('A' for Active; 'I' for Inactive)
REMARK   20  A    between atoms: CA   and  CB  
REMARK   21  A    between atoms: CB   and  CG  
REMARK   22  A    between atoms: CZ   and  OH  
ROOT
ATOM     60  CA  TYR A  73     -13.212  10.166  17.260  1.00 12.17     0.180 C 
ENDROOT
BRANCH  60  61
ATOM     61  CB  TYR A  73     -13.301   8.846  16.517  1.00 12.84     0.073 C 
BRANCH  61  62
ATOM     62  CG  TYR A  73     -11.984   8.168  16.372  1.00 15.89    -0.056 A 
ATOM     63  CD1 TYR A  73     -11.318   7.666  17.468  1.00 16.00     0.010 A 
ATOM     64  CE1 TYR A  73     -10.070   7.058  17.339  1.00 13.55     0.037 A 
ATOM     65  CZ  TYR A  73      -9.491   6.959  16.089  1.00 18.13     0.065 A 
ATOM     66  CE2 TYR A  73     -10.135   7.451  14.978  1.00 15.89     0.037 A 
ATOM     67  CD2 TYR A  73     -11.379   8.053  15.125  1.00 21.86     0.010 A 
BRANCH  65  68
ATOM     68  OH  TYR A  73      -8.265   6.359  15.938  1.00 12.12    -0.361 OA
ATOM     69  H08 TYR A  73      -8.177   6.032  15.039  1.00 12.12     0.217 HD
ENDBRANCH  65  68
ENDBRANCH  61  62
ENDBRANCH  60  61
END_RES TYR A  73
BEGIN_RES PHE A  77
REMARK  2 active torsions:
REMARK  status: ('A' for Active; 'I' for Inactive)
REMARK   23  A    between atoms: CA   and  CB  
REMARK   24  A    between atoms: CB   and  CG  
ROOT
ATOM     70  CA  PHE A  77      -8.400  10.581  20.110  1.00 17.17     0.180 C 
ENDROOT
BRANCH  70  71
ATOM     71  CB  PHE A  77      -8.228   9.750  18.851  1.00 10.44     0.073 C 
BRANCH  71  72
ATOM     72  CG  PHE A  77      -6.896   9.075  18.752  1.00  6.07    -0.056 A 
ATOM     73  CD2 PHE A  77      -6.750   7.758  19.125  1.00  9.61     0.007 A 
ATOM     74  CE2 PHE A  77      -5.517   7.123  19.035  1.00  1.00     0.001 A 
ATOM     75  CZ  PHE A  77      -4.416   7.815  18.560  1.00  1.92     0.000 A 
ATOM     76  CE1 PHE A  77      -4.546   9.131  18.181  1.00  9.25     0.001 A 
ATOM     77  CD1 PHE A  77      -5.788   9.758  18.278  1.00  9.63     0.007 A 
ENDBRANCH  71  72
ENDBRANCH  70  71
END_RES PHE A  77
BEGIN_RES LEU A  96
REMARK  2 active torsions:
REMARK  status: ('A' for Active; 'I' for Inactive)
REMARK   25  A    between atoms: CA   and  CB  
REMARK   26  A    between atoms: CB   and  CG  
ROOT
ATOM     78  CA  LEU A  96       0.717   6.481  17.359  1.00 16.08     0.177 C 
ENDROOT
BRANCH  78  79
ATOM     79  CB  LEU A  96      -0.370   7.101  18.230  1.00 18.83     0.038 C 
BRANCH  79  80
ATOM     80  CG  LEU A  96      -0.053   7.117  19.725  1.00 19.03    -0.020 C 
ATOM     81  CD1 LEU A  96      -1.130   7.896  20.444  1.00 28.17     0.009 C 
ATOM     82  CD2 LEU A  96      -0.033   5.709  20.275  1.00 22.01     0.009 C 
ENDBRANCH  79  80
ENDBRANCH  78  79
END_RES LEU A  96
BEGIN_RES VAL A  98
REMARK  1 active torsions:
REMARK  status: ('A' for Active; 'I' for Inactive)
REMARK   27  A    between atoms: CA   and  CB  
ROOT
ATOM     83  CA  VAL A  98      -3.928   2.082  14.897  1.00 19.83     0.180 C 
ENDROOT
BRANCH  83  84
ATOM     84  CB  VAL A  98      -5.203   2.807  15.281  1.00 17.87     0.009 C 
ATOM     85  CG2 VAL A  98      -4.927   4.277  15.461  1.00 29.90     0.012 C 
ATOM     86  CG1 VAL A  98      -5.764   2.206  16.552  1.00 14.79     0.012 C 
ENDBRANCH  83  84
END_RES VAL A  98
BEGIN_RES ASN A 112
REMARK  2 active torsions:
REMARK  status: ('A' for Active; 'I' for Inactive)
REMARK   28  A    between atoms: CA   and  CB  
REMARK   29  A    between atoms: CB   and  CG  
REMARK       I    between atoms: CG   and  ND2 
ROOT
ATOM     87  CA  ASN A 112     -11.790  -8.793  14.069  1.00 37.70     0.185 C 
ENDROOT
BRANCH  87  88
ATOM     88  CB  ASN A 112     -12.992  -7.945  14.465  1.00 26.24     0.137 C 
BRANCH  88  89
ATOM     89  CG  ASN A 112     -13.802  -8.553  15.588  1.00 21.77     0.217 C 
ATOM     90  ND2 ASN A 112     -14.944  -9.143  15.237  1.00  9.31    -0.370 N 
ATOM     91  H04 ASN A 112     -15.531  -9.567  15.942  1.00  9.31     0.159 HD
ATOM     92  H05 ASN A 112     -15.222  -9.168  14.266  1.00  9.31     0.159 HD
ATOM     93  OD1 ASN A 112     -13.412  -8.490  16.760  1.00 21.61    -0.274 OA
ENDBRANCH  88  89
ENDBRANCH  87  88
END_RES ASN A 112
BEGIN_RES PHE A 114
REMARK  2 active torsions:
REMARK  status: ('A' for Active; 'I' for Inactive)
REMARK   30  A    between atoms: CA   and  CB  
REMARK   31  A    between atoms: CB   and  CG  
ROOT
ATOM     94  CA  PHE A 114      -7.754  -3.619  17.012  1.00 26.06     0.180 C 
ENDROOT
BRANCH  94  95
ATOM     95  CB  PHE A 114      -8.890  -3.080  17.867  1.00 19.95     0.073 C 
BRANCH  95  96
ATOM     96  CG  PHE A 114      -8.686  -1.664  18.299  1.00 17.65    -0.056 A 
ATOM     97  CD1 PHE A 114      -8.281  -0.692  17.388  1.00 13.01     0.007 A 
ATOM     98  CE1 PHE A 114      -8.063   0.617  17.795  1.00  6.74     0.001 A 
ATOM     99  CZ  PHE A 114      -8.250   0.974  19.127  1.00  6.27     0.000 A 
ATOM    100  CE2 PHE A 114      -8.654   0.016  20.043  1.00 17.36     0.001 A 
ATOM    101  CD2 PHE A 114      -8.871  -1.302  19.626  1.00 18.39     0.007 A 
ENDBRANCH  95  96
ENDBRANCH  94  95
END_RES PHE A 114
BEGIN_RES VAL A 116
REMARK  1 active torsions:
REMARK  status: ('A' for Active; 'I' for Inactive)
REMARK   32  A    between atoms: CA   and  CB  
ROOT
ATOM    102  CA  VAL A 116      -2.467   0.283  18.565  1.00 13.48     0.180 C 
ENDROOT
BRANCH 102 103
ATOM    103  CB  VAL A 116      -3.101   1.238  19.599  1.00 20.86     0.009 C 
ATOM    104  CG1 VAL A 116      -3.049   2.674  19.069  1.00 25.01     0.012 C 
ATOM    105  CG2 VAL A 116      -4.515   0.817  19.925  1.00 25.34     0.012 C 
ENDBRANCH 102 103
END_RES VAL A 116
BEGIN_RES ILE A 123
REMARK  2 active torsions:
REMARK  status: ('A' for Active; 'I' for Inactive)
REMARK   33  A    between atoms: CA   and  CB  
REMARK   34  A    between atoms: CB   and  CG1 
ROOT
ATOM    106  CA  ILE A 123       1.557  -1.626  23.222  1.00 15.07     0.180 C 
ENDROOT
BRANCH 106 107
ATOM    107  CB  ILE A 123       1.697  -0.112  23.461  1.00 14.41     0.013 C 
ATOM    108  CG2 ILE A 123       3.111   0.212  23.911  1.00 18.35     0.012 C 
BRANCH 107 109
ATOM    109  CG1 ILE A 123       1.358   0.659  22.188  1.00 15.23     0.002 C 
ATOM    110  CD1 ILE A 123       0.257   1.675  22.370  1.00 14.67     0.005 C 
ENDBRANCH 107 109
ENDBRANCH 106 107
END_RES ILE A 123
BEGIN_RES LEU A 124
REMARK  2 active torsions:
REMARK  status: ('A' for Active; 'I' for Inactive)
REMARK   35  A    between atoms: CA   and  CB  
REMARK   36  A    between atoms: CB   and  CG  
ROOT
ATOM    111  CA  LEU A 124      -2.057  -2.686  23.524  1.00 11.86     0.177 C 
ENDROOT
BRANCH 111 112
ATOM    112  CB  LEU A 124      -2.698  -1.652  24.429  1.00 14.60     0.038 C 
BRANCH 112 113
ATOM    113  CG  LEU A 124      -2.613  -0.250  23.845  1.00 16.19    -0.020 C 
ATOM    114  CD1 LEU A 124      -4.026   0.213  23.443  1.00 22.07     0.009 C 
ATOM    115  CD2 LEU A 124      -1.983   0.677  24.854  1.00  9.12     0.009 C 
ENDBRANCH 112 113
ENDBRANCH 111 112
END_RES LEU A 124
BEGIN_RES PHE A 126
REMARK  2 active torsions:
REMARK  status: ('A' for Active; 'I' for Inactive)
REMARK   37  A    between atoms: CA   and  CB  
REMARK   38  A    between atoms: CB   and  CG  
ROOT
ATOM    116  CA  PHE A 126      -8.784  -4.792  22.233  1.00 23.15     0.180 C 
ENDROOT
BRANCH 116 117
ATOM    117  CB  PHE A 126      -9.823  -4.011  21.461  1.00 20.65     0.073 C 
BRANCH 117 118
ATOM    118  CG  PHE A 126     -10.925  -3.502  22.305  1.00 23.65    -0.056 A 
ATOM    119  CD2 PHE A 126     -10.698  -2.506  23.238  1.00 36.63     0.007 A 
ATOM    120  CE2 PHE A 126     -11.744  -2.024  24.037  1.00 36.27     0.001 A 
ATOM    121  CZ  PHE A 126     -13.020  -2.547  23.895  1.00 18.06     0.000 A 
ATOM    122  CE1 PHE A 126     -13.251  -3.540  22.963  1.00  5.50     0.001 A 
ATOM    123  CD1 PHE A 126     -12.205  -4.012  22.171  1.00 15.29     0.007 A 
ENDBRANCH 117 118
ENDBRANCH 116 117
END_RES PHE A 126
BEGIN_RES TRP A 131
REMARK  2 active torsions:
REMARK  status: ('A' for Active; 'I' for Inactive)
REMARK   39  A    between atoms: CA   and  CB  
REMARK   40  A    between atoms: CB   and  CG  
ROOT
ATOM    124  CA  TRP A 131      -8.096  -3.335  26.542  1.00 14.52     0.181 C 
ENDROOT
BRANCH 124 125
ATOM    125  CB  TRP A 131      -7.651  -1.877  26.607  1.00 13.06     0.075 C 
BRANCH 125 126
ATOM    126  CG  TRP A 131      -7.949  -1.080  25.356  1.00 16.97    -0.028 A 
ATOM    127  CD2 TRP A 131      -8.964  -0.084  25.203  1.00 11.34    -0.002 A 
ATOM    128  CE2 TRP A 131      -8.883   0.402  23.883  1.00  5.87     0.042 A 
ATOM    129  CE3 TRP A 131      -9.936   0.444  26.059  1.00  3.80     0.014 A 
ATOM    130  CZ2 TRP A 131      -9.737   1.395  23.399  1.00  1.35     0.030 A 
ATOM    131  NE1 TRP A 131      -7.867  -0.268  23.260  1.00 13.90    -0.365 N 
ATOM    132  CH2 TRP A 131     -10.681   1.896  24.261  1.00  1.00     0.002 A 
ATOM    133  CZ3 TRP A 131     -10.786   1.426  25.584  1.00  1.00     0.001 A 
ATOM    134  CD1 TRP A 131      -7.310  -1.157  24.150  1.00 17.22     0.096 A 
ATOM    135  H07 TRP A 131      -7.573  -0.133  22.303  1.00 13.90     0.165 HD
ENDBRANCH 125 126
ENDBRANCH 124 125
END_RES TRP A 131
BEGIN_RES LEU A 148
REMARK  2 active torsions:
REMARK  status: ('A' for Active; 'I' for Inactive)
REMARK   41  A    between atoms: CA   and  CB  
REMARK   42  A    between atoms: CB   and  CG  
ROOT
ATOM    136  CA  LEU A 148      -9.018   3.259  29.295  1.00 16.99     0.177 C 
ENDROOT
BRANCH 136 137
ATOM    137  CB  LEU A 148      -8.166   2.574  28.236  1.00  6.39     0.038 C 
BRANCH 137 138
ATOM    138  CG  LEU A 148      -7.209   3.366  27.369  1.00  1.00    -0.020 C 
ATOM    139  CD2 LEU A 148      -5.881   2.672  27.291  1.00  1.00     0.009 C 
ATOM    140  CD1 LEU A 148      -7.053   4.750  27.974  1.00  2.71     0.009 C 
ENDBRANCH 137 138
ENDBRANCH 136 137
END_RES LEU A 148
BEGIN_RES THR A 154
REMARK  2 active torsions:
REMARK  status: ('A' for Active; 'I' for Inactive)
REMARK   43  A    between atoms: CA   and  CB  
REMARK   44  A    between atoms: CB   and  OG1 
ROOT
ATOM    141  CA  THR A 154     -15.990   3.959  24.426  1.00 20.45     0.205 C 
ENDROOT
BRANCH 141 142
ATOM    142  CB  THR A 154     -14.777   4.829  24.694  1.00 16.79     0.146 C 
ATOM    143  CG2 THR A 154     -13.586   4.324  23.903  1.00 20.24     0.042 C 
BRANCH 142 144
ATOM    144  OG1 THR A 154     -15.069   6.171  24.286  1.00 18.84    -0.393 OA
ATOM    145  H06 THR A 154     -15.986   6.375  24.484  1.00 18.84     0.210 HD
ENDBRANCH 142 144
ENDBRANCH 141 142
END_RES THR A 154
BEGIN_RES VAL A 158
REMARK  1 active torsions:
REMARK  status: ('A' for Active; 'I' for Inactive)
REMARK   45  A    between atoms: CA   and  CB  
ROOT
ATOM    146  CA  VAL A 158     -15.487  -0.189  19.892  1.00 15.49     0.180 C 
ENDROOT
BRANCH 146 147
ATOM    147  CB  VAL A 158     -14.291  -0.273  20.822  1.00  6.52     0.009 C 
ATOM    148  CG1 VAL A 158     -13.200  -1.129  20.221  1.00  1.00     0.012 C 
ATOM    149  CG2 VAL A 158     -13.791   1.113  21.087  1.00  5.99     0.012 C 
ENDBRANCH 146 147
END_RES VAL A 158
BEGIN_RES LEU A 161
REMARK  2 active torsions:
REMARK  status: ('A' for Active; 'I' for Inactive)
REMARK   46  A    between atoms: CA   and  CB  
REMARK   47  A    between atoms: CB   and  CG  
ROOT
ATOM    150  CA  LEU A 161     -18.031  -1.858  15.935  1.00 13.31     0.177 C 
ENDROOT
BRANCH 150 151
ATOM    151  CB  LEU A 161     -17.046  -0.706  16.001  1.00 14.13     0.038 C 
BRANCH 151 152
ATOM    152  CG  LEU A 161     -17.448   0.568  15.268  1.00 19.39    -0.020 C 
ATOM    153  CD2 LEU A 161     -17.254   0.398  13.781  1.00 27.75     0.009 C 
ATOM    154  CD1 LEU A 161     -16.602   1.706  15.772  1.00 18.59     0.009 C 
ENDBRANCH 151 152
ENDBRANCH 150 151
END_RES LEU A 161
BEGIN_RES GLN A 168
REMARK  3 active torsions:
REMARK  status: ('A' for Active; 'I' for Inactive)
REMARK   48  A    between atoms: CA   and  CB  
REMARK   49  A    between atoms: CB   and  CG  
REMARK   50  A    between atoms: CG   and  CD  
REMARK       I    between atoms: CD   and  NE2 
ROOT
ATOM    155  CA  GLN A 168     -22.035  -6.020   8.155  1.00 30.94     0.177 C 
ENDROOT
BRANCH 155 156
ATOM    156  CB  GLN A 168     -23.054  -5.218   8.946  1.00 41.76     0.044 C 
BRANCH 156 157
ATOM    157  CG  GLN A 168     -24.480  -5.414   8.507  1.00 61.20     0.105 C 
BRANCH 157 158
ATOM    158  CD  GLN A 168     -25.074  -4.144   7.931  1.00 75.49     0.215 C 
ATOM    159  NE2 GLN A 168     -25.474  -4.203   6.660  1.00 85.00    -0.370 N 
ATOM    160  H06 GLN A 168     -25.876  -3.388   6.219  1.00 85.00     0.159 HD
ATOM    161  H07 GLN A 168     -25.374  -5.063   6.138  1.00 85.00     0.159 HD
ATOM    162  OE1 GLN A 168     -25.170  -3.116   8.616  1.00 73.64    -0.274 OA
ENDBRANCH 157 158
ENDBRANCH 156 157
ENDBRANCH 155 156
END_RES GLN A 168
ENDMDL
