MODEL 1
REMARK VINA RESULT:      -7.0      0.000      0.000
REMARK  Name = human_CD1d_CTAB_pred.rank_0
REMARK  15 active torsions:
REMARK  status: ('A' for Active; 'I' for Inactive)
REMARK    1  A    between atoms: N_2  and  C_17
REMARK    2  A    between atoms: C_3  and  C_4
REMARK    3  A    between atoms: C_4  and  C_5
REMARK    4  A    between atoms: C_5  and  C_6
REMARK    5  A    between atoms: C_6  and  C_7
REMARK    6  A    between atoms: C_7  and  C_8
REMARK    7  A    between atoms: C_8  and  C_9
REMARK    8  A    between atoms: C_9  and  C_10
REMARK    9  A    between atoms: C_10  and  C_11
REMARK   10  A    between atoms: C_11  and  C_12
REMARK   11  A    between atoms: C_12  and  C_13
REMARK   12  A    between atoms: C_13  and  C_14
REMARK   13  A    between atoms: C_14  and  C_15
REMARK   14  A    between atoms: C_15  and  C_16
REMARK   15  A    between atoms: C_16  and  C_17
REMARK                            x       y       z     vdW  Elec       q    Type
REMARK                         _______ _______ _______ _____ _____    ______ ____
ROOT
ATOM      1  C   UNL     1      -4.226   3.880  23.452  0.00  0.00    +0.000 C 
ENDROOT
BRANCH   1   2
ATOM      2  C   UNL     1      -3.292   4.545  22.485  0.00  0.00    +0.000 C 
BRANCH   2   3
ATOM      3  C   UNL     1      -1.961   4.862  23.141  0.00  0.00    +0.000 C 
BRANCH   3   4
ATOM      4  C   UNL     1      -1.955   4.410  24.586  0.00  0.00    +0.000 C 
BRANCH   4   5
ATOM      5  C   UNL     1      -0.579   4.720  25.217  0.00  0.00    +0.000 C 
BRANCH   5   6
ATOM      6  C   UNL     1      -0.711   5.737  26.338  0.00  0.00    +0.000 C 
BRANCH   6   7
ATOM      7  C   UNL     1       0.465   6.710  26.275  0.00  0.00    +0.000 C 
BRANCH   7   8
ATOM      8  C   UNL     1       0.953   6.860  24.852  0.00  0.00    +0.000 C 
BRANCH   8  10
ATOM      9  C   UNL     1       1.367   9.192  24.141  0.00  0.00    +0.000 C 
ATOM     10  C   UNL     1       0.335   8.117  24.259  0.00  0.00    +0.000 C 
ENDBRANCH   8  10
ENDBRANCH   7   8
ENDBRANCH   6   7
ENDBRANCH   5   6
ENDBRANCH   4   5
ENDBRANCH   3   4
ENDBRANCH   2   3
ENDBRANCH   1   2
BRANCH   1  11
ATOM     11  C   UNL     1      -5.652   3.934  22.944  0.00  0.00    +0.000 C 
BRANCH  11  12
ATOM     12  C   UNL     1      -6.182   2.529  22.758  0.00  0.00    +0.000 C 
BRANCH  12  13
ATOM     13  C   UNL     1      -7.229   2.523  21.664  0.00  0.00    +0.000 C 
BRANCH  13  14
ATOM     14  C   UNL     1      -6.966   3.664  20.694  0.00  0.00    +0.000 C 
BRANCH  14  15
ATOM     15  C   UNL     1      -8.305   4.242  20.196  0.00  0.00    +0.000 C 
BRANCH  15  16
ATOM     16  C   UNL     1      -8.841   5.276  21.176  0.00  0.00    +0.000 C 
BRANCH  16  17
ATOM     17  N   UNL     1     -10.170   4.877  21.655  0.00  0.00    +0.000 N 
ATOM     18  C   UNL     1     -11.020   6.052  21.594  0.00  0.00    +0.000 C 
ATOM     19  C   UNL     1     -10.072   4.453  23.031  0.00  0.00    +0.000 C 
ATOM     20  C   UNL     1     -10.757   3.825  20.827  0.00  0.00    +0.000 C 
ENDBRANCH  16  17
ENDBRANCH  15  16
ENDBRANCH  14  15
ENDBRANCH  13  14
ENDBRANCH  12  13
ENDBRANCH  11  12
ENDBRANCH   1  11
TORSDOF 15
ENDMDL
MODEL 2
REMARK VINA RESULT:      -6.9      1.213      1.901
REMARK  Name = human_CD1d_CTAB_pred.rank_0
REMARK  15 active torsions:
REMARK  status: ('A' for Active; 'I' for Inactive)
REMARK    1  A    between atoms: N_2  and  C_17
REMARK    2  A    between atoms: C_3  and  C_4
REMARK    3  A    between atoms: C_4  and  C_5
REMARK    4  A    between atoms: C_5  and  C_6
REMARK    5  A    between atoms: C_6  and  C_7
REMARK    6  A    between atoms: C_7  and  C_8
REMARK    7  A    between atoms: C_8  and  C_9
REMARK    8  A    between atoms: C_9  and  C_10
REMARK    9  A    between atoms: C_10  and  C_11
REMARK   10  A    between atoms: C_11  and  C_12
REMARK   11  A    between atoms: C_12  and  C_13
REMARK   12  A    between atoms: C_13  and  C_14
REMARK   13  A    between atoms: C_14  and  C_15
REMARK   14  A    between atoms: C_15  and  C_16
REMARK   15  A    between atoms: C_16  and  C_17
REMARK                            x       y       z     vdW  Elec       q    Type
REMARK                         _______ _______ _______ _____ _____    ______ ____
ROOT
ATOM      1  C   UNL     1      -5.294   4.560  22.377  0.00  0.00    +0.000 C 
ENDROOT
BRANCH   1   2
ATOM      2  C   UNL     1      -3.921   4.805  21.826  0.00  0.00    +0.000 C 
BRANCH   2   3
ATOM      3  C   UNL     1      -3.058   5.557  22.823  0.00  0.00    +0.000 C 
BRANCH   3   4
ATOM      4  C   UNL     1      -2.013   4.641  23.423  0.00  0.00    +0.000 C 
BRANCH   4   5
ATOM      5  C   UNL     1      -2.014   4.795  24.960  0.00  0.00    +0.000 C 
BRANCH   5   6
ATOM      6  C   UNL     1      -0.596   4.861  25.502  0.00  0.00    +0.000 C 
BRANCH   6   7
ATOM      7  C   UNL     1       0.338   5.376  24.407  0.00  0.00    +0.000 C 
BRANCH   7   8
ATOM      8  C   UNL     1       0.990   6.671  24.833  0.00  0.00    +0.000 C 
BRANCH   8  10
ATOM      9  C   UNL     1      -0.815   8.235  24.194  0.00  0.00    +0.000 C 
ATOM     10  C   UNL     1       0.567   7.766  23.866  0.00  0.00    +0.000 C 
ENDBRANCH   8  10
ENDBRANCH   7   8
ENDBRANCH   6   7
ENDBRANCH   5   6
ENDBRANCH   4   5
ENDBRANCH   3   4
ENDBRANCH   2   3
ENDBRANCH   1   2
BRANCH   1  11
ATOM     11  C   UNL     1      -5.451   3.116  22.804  0.00  0.00    +0.000 C 
BRANCH  11  12
ATOM     12  C   UNL     1      -6.788   2.586  22.334  0.00  0.00    +0.000 C 
BRANCH  12  13
ATOM     13  C   UNL     1      -7.131   3.197  20.992  0.00  0.00    +0.000 C 
BRANCH  13  14
ATOM     14  C   UNL     1      -8.626   3.462  20.914  0.00  0.00    +0.000 C 
BRANCH  14  15
ATOM     15  C   UNL     1      -9.081   4.247  22.159  0.00  0.00    +0.000 C 
BRANCH  15  16
ATOM     16  C   UNL     1     -10.086   5.324  21.776  0.00  0.00    +0.000 C 
BRANCH  16  17
ATOM     17  N   UNL     1      -9.777   6.576  22.478  0.00  0.00    +0.000 N 
ATOM     18  C   UNL     1     -10.379   6.491  23.795  0.00  0.00    +0.000 C 
ATOM     19  C   UNL     1     -10.379   7.680  21.768  0.00  0.00    +0.000 C 
ATOM     20  C   UNL     1      -8.336   6.778  22.627  0.00  0.00    +0.000 C 
ENDBRANCH  16  17
ENDBRANCH  15  16
ENDBRANCH  14  15
ENDBRANCH  13  14
ENDBRANCH  12  13
ENDBRANCH  11  12
ENDBRANCH   1  11
TORSDOF 15
ENDMDL
MODEL 3
REMARK VINA RESULT:      -6.6     12.226     16.207
REMARK  Name = human_CD1d_CTAB_pred.rank_0
REMARK  15 active torsions:
REMARK  status: ('A' for Active; 'I' for Inactive)
REMARK    1  A    between atoms: N_2  and  C_17
REMARK    2  A    between atoms: C_3  and  C_4
REMARK    3  A    between atoms: C_4  and  C_5
REMARK    4  A    between atoms: C_5  and  C_6
REMARK    5  A    between atoms: C_6  and  C_7
REMARK    6  A    between atoms: C_7  and  C_8
REMARK    7  A    between atoms: C_8  and  C_9
REMARK    8  A    between atoms: C_9  and  C_10
REMARK    9  A    between atoms: C_10  and  C_11
REMARK   10  A    between atoms: C_11  and  C_12
REMARK   11  A    between atoms: C_12  and  C_13
REMARK   12  A    between atoms: C_13  and  C_14
REMARK   13  A    between atoms: C_14  and  C_15
REMARK   14  A    between atoms: C_15  and  C_16
REMARK   15  A    between atoms: C_16  and  C_17
REMARK                            x       y       z     vdW  Elec       q    Type
REMARK                         _______ _______ _______ _____ _____    ______ ____
ROOT
ATOM      1  C   UNL     1     -13.006   4.485   7.811  0.00  0.00    +0.000 C 
ENDROOT
BRANCH   1   2
ATOM      2  C   UNL     1     -12.500   5.865   8.108  0.00  0.00    +0.000 C 
BRANCH   2   3
ATOM      3  C   UNL     1     -11.220   6.154   7.346  0.00  0.00    +0.000 C 
BRANCH   3   4
ATOM      4  C   UNL     1     -10.221   5.032   7.532  0.00  0.00    +0.000 C 
BRANCH   4   5
ATOM      5  C   UNL     1      -9.391   5.287   8.810  0.00  0.00    +0.000 C 
BRANCH   5   6
ATOM      6  C   UNL     1      -9.800   4.338   9.924  0.00  0.00    +0.000 C 
BRANCH   6   7
ATOM      7  C   UNL     1      -8.766   4.406  11.047  0.00  0.00    +0.000 C 
BRANCH   7   8
ATOM      8  C   UNL     1      -9.143   5.471  12.051  0.00  0.00    +0.000 C 
BRANCH   8  10
ATOM      9  C   UNL     1     -10.437   4.098  13.650  0.00  0.00    +0.000 C 
ATOM     10  C   UNL     1     -10.528   5.153  12.595  0.00  0.00    +0.000 C 
ENDBRANCH   8  10
ENDBRANCH   7   8
ENDBRANCH   6   7
ENDBRANCH   5   6
ENDBRANCH   4   5
ENDBRANCH   3   4
ENDBRANCH   2   3
ENDBRANCH   1   2
BRANCH   1  11
ATOM     11  C   UNL     1     -13.858   4.484   6.559  0.00  0.00    +0.000 C 
BRANCH  11  12
ATOM     12  C   UNL     1     -14.487   3.120   6.369  0.00  0.00    +0.000 C 
BRANCH  12  13
ATOM     13  C   UNL     1     -15.422   2.830   7.523  0.00  0.00    +0.000 C 
BRANCH  13  14
ATOM     14  C   UNL     1     -15.147   1.439   8.072  0.00  0.00    +0.000 C 
BRANCH  14  15
ATOM     15  C   UNL     1     -15.021   1.501   9.607  0.00  0.00    +0.000 C 
BRANCH  15  16
ATOM     16  C   UNL     1     -16.022   0.561  10.265  0.00  0.00    +0.000 C 
BRANCH  16  17
ATOM     17  N   UNL     1     -15.570   0.209  11.617  0.00  0.00    +0.000 N 
ATOM     18  C   UNL     1     -16.675  -0.459  12.279  0.00  0.00    +0.000 C 
ATOM     19  C   UNL     1     -15.262   1.417  12.344  0.00  0.00    +0.000 C 
ATOM     20  C   UNL     1     -14.418  -0.692  11.592  0.00  0.00    +0.000 C 
ENDBRANCH  16  17
ENDBRANCH  15  16
ENDBRANCH  14  15
ENDBRANCH  13  14
ENDBRANCH  12  13
ENDBRANCH  11  12
ENDBRANCH   1  11
TORSDOF 15
ENDMDL
MODEL 4
REMARK VINA RESULT:      -6.6      2.771      8.499
REMARK  Name = human_CD1d_CTAB_pred.rank_0
REMARK  15 active torsions:
REMARK  status: ('A' for Active; 'I' for Inactive)
REMARK    1  A    between atoms: N_2  and  C_17
REMARK    2  A    between atoms: C_3  and  C_4
REMARK    3  A    between atoms: C_4  and  C_5
REMARK    4  A    between atoms: C_5  and  C_6
REMARK    5  A    between atoms: C_6  and  C_7
REMARK    6  A    between atoms: C_7  and  C_8
REMARK    7  A    between atoms: C_8  and  C_9
REMARK    8  A    between atoms: C_9  and  C_10
REMARK    9  A    between atoms: C_10  and  C_11
REMARK   10  A    between atoms: C_11  and  C_12
REMARK   11  A    between atoms: C_12  and  C_13
REMARK   12  A    between atoms: C_13  and  C_14
REMARK   13  A    between atoms: C_14  and  C_15
REMARK   14  A    between atoms: C_15  and  C_16
REMARK   15  A    between atoms: C_16  and  C_17
REMARK                            x       y       z     vdW  Elec       q    Type
REMARK                         _______ _______ _______ _____ _____    ______ ____
ROOT
ATOM      1  C   UNL     1      -7.063   7.107  22.842  0.00  0.00    +0.000 C 
ENDROOT
BRANCH   1   2
ATOM      2  C   UNL     1      -8.488   6.810  23.205  0.00  0.00    +0.000 C 
BRANCH   2   3
ATOM      3  C   UNL     1      -9.374   6.787  21.974  0.00  0.00    +0.000 C 
BRANCH   3   4
ATOM      4  C   UNL     1     -10.430   5.709  22.094  0.00  0.00    +0.000 C 
BRANCH   4   5
ATOM      5  C   UNL     1     -10.431   4.843  20.815  0.00  0.00    +0.000 C 
BRANCH   5   6
ATOM      6  C   UNL     1      -9.402   3.728  20.912  0.00  0.00    +0.000 C 
BRANCH   6   7
ATOM      7  C   UNL     1      -8.165   4.114  20.102  0.00  0.00    +0.000 C 
BRANCH   7   8
ATOM      8  C   UNL     1      -6.908   3.644  20.797  0.00  0.00    +0.000 C 
BRANCH   8  10
ATOM      9  C   UNL     1      -6.367   2.319  22.814  0.00  0.00    +0.000 C 
ATOM     10  C   UNL     1      -7.226   3.414  22.267  0.00  0.00    +0.000 C 
ENDBRANCH   8  10
ENDBRANCH   7   8
ENDBRANCH   6   7
ENDBRANCH   5   6
ENDBRANCH   4   5
ENDBRANCH   3   4
ENDBRANCH   2   3
ENDBRANCH   1   2
BRANCH   1  11
ATOM     11  C   UNL     1      -6.159   6.957  24.047  0.00  0.00    +0.000 C 
BRANCH  11  12
ATOM     12  C   UNL     1      -4.714   6.910  23.600  0.00  0.00    +0.000 C 
BRANCH  12  13
ATOM     13  C   UNL     1      -4.619   6.188  22.272  0.00  0.00    +0.000 C 
BRANCH  13  14
ATOM     14  C   UNL     1      -3.581   5.081  22.361  0.00  0.00    +0.000 C 
BRANCH  14  15
ATOM     15  C   UNL     1      -2.872   5.141  23.728  0.00  0.00    +0.000 C 
BRANCH  15  16
ATOM     16  C   UNL     1      -1.361   5.085  23.551  0.00  0.00    +0.000 C 
BRANCH  16  17
ATOM     17  N   UNL     1      -0.707   5.987  24.508  0.00  0.00    +0.000 N 
ATOM     18  C   UNL     1      -1.147   5.598  25.835  0.00  0.00    +0.000 C 
ATOM     19  C   UNL     1      -1.141   7.340  24.259  0.00  0.00    +0.000 C 
ATOM     20  C   UNL     1       0.750   5.888  24.444  0.00  0.00    +0.000 C 
ENDBRANCH  16  17
ENDBRANCH  15  16
ENDBRANCH  14  15
ENDBRANCH  13  14
ENDBRANCH  12  13
ENDBRANCH  11  12
ENDBRANCH   1  11
TORSDOF 15
ENDMDL
MODEL 5
REMARK VINA RESULT:      -6.6      2.702      8.735
REMARK  Name = human_CD1d_CTAB_pred.rank_0
REMARK  15 active torsions:
REMARK  status: ('A' for Active; 'I' for Inactive)
REMARK    1  A    between atoms: N_2  and  C_17
REMARK    2  A    between atoms: C_3  and  C_4
REMARK    3  A    between atoms: C_4  and  C_5
REMARK    4  A    between atoms: C_5  and  C_6
REMARK    5  A    between atoms: C_6  and  C_7
REMARK    6  A    between atoms: C_7  and  C_8
REMARK    7  A    between atoms: C_8  and  C_9
REMARK    8  A    between atoms: C_9  and  C_10
REMARK    9  A    between atoms: C_10  and  C_11
REMARK   10  A    between atoms: C_11  and  C_12
REMARK   11  A    between atoms: C_12  and  C_13
REMARK   12  A    between atoms: C_13  and  C_14
REMARK   13  A    between atoms: C_14  and  C_15
REMARK   14  A    between atoms: C_15  and  C_16
REMARK   15  A    between atoms: C_16  and  C_17
REMARK                            x       y       z     vdW  Elec       q    Type
REMARK                         _______ _______ _______ _____ _____    ______ ____
ROOT
ATOM      1  C   UNL     1      -6.169   3.947  23.100  0.00  0.00    +0.000 C 
ENDROOT
BRANCH   1   2
ATOM      2  C   UNL     1      -6.621   2.553  22.780  0.00  0.00    +0.000 C 
BRANCH   2   3
ATOM      3  C   UNL     1      -7.383   2.512  21.469  0.00  0.00    +0.000 C 
BRANCH   3   4
ATOM      4  C   UNL     1      -7.046   3.717  20.616  0.00  0.00    +0.000 C 
BRANCH   4   5
ATOM      5  C   UNL     1      -8.340   4.285  19.992  0.00  0.00    +0.000 C 
BRANCH   5   6
ATOM      6  C   UNL     1      -9.567   3.800  20.746  0.00  0.00    +0.000 C 
BRANCH   6   7
ATOM      7  C   UNL     1     -10.325   5.006  21.300  0.00  0.00    +0.000 C 
BRANCH   7   8
ATOM      8  C   UNL     1      -9.626   5.557  22.521  0.00  0.00    +0.000 C 
BRANCH   8  10
ATOM      9  C   UNL     1     -10.167   7.799  21.627  0.00  0.00    +0.000 C 
ATOM     10  C   UNL     1      -9.080   6.936  22.184  0.00  0.00    +0.000 C 
ENDBRANCH   8  10
ENDBRANCH   7   8
ENDBRANCH   6   7
ENDBRANCH   5   6
ENDBRANCH   4   5
ENDBRANCH   3   4
ENDBRANCH   2   3
ENDBRANCH   1   2
BRANCH   1  11
ATOM     11  C   UNL     1      -4.719   3.955  23.538  0.00  0.00    +0.000 C 
BRANCH  11  12
ATOM     12  C   UNL     1      -3.824   4.170  22.337  0.00  0.00    +0.000 C 
BRANCH  12  13
ATOM     13  C   UNL     1      -2.684   5.092  22.715  0.00  0.00    +0.000 C 
BRANCH  13  14
ATOM     14  C   UNL     1      -3.229   6.466  23.071  0.00  0.00    +0.000 C 
BRANCH  14  15
ATOM     15  C   UNL     1      -2.233   7.198  23.992  0.00  0.00    +0.000 C 
BRANCH  15  16
ATOM     16  C   UNL     1      -1.450   6.200  24.834  0.00  0.00    +0.000 C 
BRANCH  16  17
ATOM     17  N   UNL     1      -0.026   6.559  24.847  0.00  0.00    +0.000 N 
ATOM     18  C   UNL     1       0.369   6.702  26.235  0.00  0.00    +0.000 C 
ATOM     19  C   UNL     1       0.151   7.829  24.185  0.00  0.00    +0.000 C 
ATOM     20  C   UNL     1       0.803   5.528  24.223  0.00  0.00    +0.000 C 
ENDBRANCH  16  17
ENDBRANCH  15  16
ENDBRANCH  14  15
ENDBRANCH  13  14
ENDBRANCH  12  13
ENDBRANCH  11  12
ENDBRANCH   1  11
TORSDOF 15
ENDMDL
MODEL 6
REMARK VINA RESULT:      -6.5     11.604     15.833
REMARK  Name = human_CD1d_CTAB_pred.rank_0
REMARK  15 active torsions:
REMARK  status: ('A' for Active; 'I' for Inactive)
REMARK    1  A    between atoms: N_2  and  C_17
REMARK    2  A    between atoms: C_3  and  C_4
REMARK    3  A    between atoms: C_4  and  C_5
REMARK    4  A    between atoms: C_5  and  C_6
REMARK    5  A    between atoms: C_6  and  C_7
REMARK    6  A    between atoms: C_7  and  C_8
REMARK    7  A    between atoms: C_8  and  C_9
REMARK    8  A    between atoms: C_9  and  C_10
REMARK    9  A    between atoms: C_10  and  C_11
REMARK   10  A    between atoms: C_11  and  C_12
REMARK   11  A    between atoms: C_12  and  C_13
REMARK   12  A    between atoms: C_13  and  C_14
REMARK   13  A    between atoms: C_14  and  C_15
REMARK   14  A    between atoms: C_15  and  C_16
REMARK   15  A    between atoms: C_16  and  C_17
REMARK                            x       y       z     vdW  Elec       q    Type
REMARK                         _______ _______ _______ _____ _____    ______ ____
ROOT
ATOM      1  C   UNL     1      -8.889   3.986  11.122  0.00  0.00    +0.000 C 
ENDROOT
BRANCH   1   2
ATOM      2  C   UNL     1      -9.919   4.595  10.218  0.00  0.00    +0.000 C 
BRANCH   2   3
ATOM      3  C   UNL     1      -9.266   5.386   9.099  0.00  0.00    +0.000 C 
BRANCH   3   4
ATOM      4  C   UNL     1     -10.138   5.382   7.862  0.00  0.00    +0.000 C 
BRANCH   4   5
ATOM      5  C   UNL     1     -11.526   4.800   8.210  0.00  0.00    +0.000 C 
BRANCH   5   6
ATOM      6  C   UNL     1     -12.610   5.856   8.069  0.00  0.00    +0.000 C 
BRANCH   6   7
ATOM      7  C   UNL     1     -13.796   5.261   7.312  0.00  0.00    +0.000 C 
BRANCH   7   8
ATOM      8  C   UNL     1     -13.327   4.206   6.336  0.00  0.00    +0.000 C 
BRANCH   8  10
ATOM      9  C   UNL     1     -15.156   3.035   7.519  0.00  0.00    +0.000 C 
ATOM     10  C   UNL     1     -14.399   3.132   6.233  0.00  0.00    +0.000 C 
ENDBRANCH   8  10
ENDBRANCH   7   8
ENDBRANCH   6   7
ENDBRANCH   5   6
ENDBRANCH   4   5
ENDBRANCH   3   4
ENDBRANCH   2   3
ENDBRANCH   1   2
BRANCH   1  11
ATOM     11  C   UNL     1      -9.094   4.440  12.552  0.00  0.00    +0.000 C 
BRANCH  11  12
ATOM     12  C   UNL     1     -10.455   5.085  12.694  0.00  0.00    +0.000 C 
BRANCH  12  13
ATOM     13  C   UNL     1     -11.197   4.455  13.853  0.00  0.00    +0.000 C 
BRANCH  13  14
ATOM     14  C   UNL     1     -10.382   3.303  14.420  0.00  0.00    +0.000 C 
BRANCH  14  15
ATOM     15  C   UNL     1     -11.272   2.052  14.552  0.00  0.00    +0.000 C 
BRANCH  15  16
ATOM     16  C   UNL     1     -12.609   2.270  13.857  0.00  0.00    +0.000 C 
BRANCH  16  17
ATOM     17  N   UNL     1     -13.244   0.978  13.567  0.00  0.00    +0.000 N 
ATOM     18  C   UNL     1     -13.203   0.195  14.788  0.00  0.00    +0.000 C 
ATOM     19  C   UNL     1     -12.482   0.289  12.554  0.00  0.00    +0.000 C 
ATOM     20  C   UNL     1     -14.638   1.134  13.153  0.00  0.00    +0.000 C 
ENDBRANCH  16  17
ENDBRANCH  15  16
ENDBRANCH  14  15
ENDBRANCH  13  14
ENDBRANCH  12  13
ENDBRANCH  11  12
ENDBRANCH   1  11
TORSDOF 15
ENDMDL
MODEL 7
REMARK VINA RESULT:      -6.4     11.336     17.231
REMARK  Name = human_CD1d_CTAB_pred.rank_0
REMARK  15 active torsions:
REMARK  status: ('A' for Active; 'I' for Inactive)
REMARK    1  A    between atoms: N_2  and  C_17
REMARK    2  A    between atoms: C_3  and  C_4
REMARK    3  A    between atoms: C_4  and  C_5
REMARK    4  A    between atoms: C_5  and  C_6
REMARK    5  A    between atoms: C_6  and  C_7
REMARK    6  A    between atoms: C_7  and  C_8
REMARK    7  A    between atoms: C_8  and  C_9
REMARK    8  A    between atoms: C_9  and  C_10
REMARK    9  A    between atoms: C_10  and  C_11
REMARK   10  A    between atoms: C_11  and  C_12
REMARK   11  A    between atoms: C_12  and  C_13
REMARK   12  A    between atoms: C_13  and  C_14
REMARK   13  A    between atoms: C_14  and  C_15
REMARK   14  A    between atoms: C_15  and  C_16
REMARK   15  A    between atoms: C_16  and  C_17
REMARK                            x       y       z     vdW  Elec       q    Type
REMARK                         _______ _______ _______ _____ _____    ______ ____
ROOT
ATOM      1  C   UNL     1     -12.285   5.858   8.003  0.00  0.00    +0.000 C 
ENDROOT
BRANCH   1   2
ATOM      2  C   UNL     1     -13.549   5.246   7.475  0.00  0.00    +0.000 C 
BRANCH   2   3
ATOM      3  C   UNL     1     -13.258   4.297   6.327  0.00  0.00    +0.000 C 
BRANCH   3   4
ATOM      4  C   UNL     1     -14.217   3.126   6.345  0.00  0.00    +0.000 C 
BRANCH   4   5
ATOM      5  C   UNL     1     -14.053   2.345   7.667  0.00  0.00    +0.000 C 
BRANCH   5   6
ATOM      6  C   UNL     1     -15.405   2.047   8.295  0.00  0.00    +0.000 C 
BRANCH   6   7
ATOM      7  C   UNL     1     -15.408   0.612   8.822  0.00  0.00    +0.000 C 
BRANCH   7   8
ATOM      8  C   UNL     1     -16.468   0.441   9.886  0.00  0.00    +0.000 C 
BRANCH   8  10
ATOM      9  C   UNL     1     -16.795  -0.450  12.169  0.00  0.00    +0.000 C 
ATOM     10  C   UNL     1     -15.938  -0.513  10.946  0.00  0.00    +0.000 C 
ENDBRANCH   8  10
ENDBRANCH   7   8
ENDBRANCH   6   7
ENDBRANCH   5   6
ENDBRANCH   4   5
ENDBRANCH   3   4
ENDBRANCH   2   3
ENDBRANCH   1   2
BRANCH   1  11
ATOM     11  C   UNL     1     -11.517   4.862   8.845  0.00  0.00    +0.000 C 
BRANCH  11  12
ATOM     12  C   UNL     1     -10.059   5.262   8.907  0.00  0.00    +0.000 C 
BRANCH  12  13
ATOM     13  C   UNL     1      -9.382   4.533  10.049  0.00  0.00    +0.000 C 
BRANCH  13  14
ATOM     14  C   UNL     1      -9.204   5.476  11.228  0.00  0.00    +0.000 C 
BRANCH  14  15
ATOM     15  C   UNL     1     -10.209   5.115  12.339  0.00  0.00    +0.000 C 
BRANCH  15  16
ATOM     16  C   UNL     1     -10.485   3.619  12.347  0.00  0.00    +0.000 C 
BRANCH  16  17
ATOM     17  N   UNL     1     -10.895   3.188  13.690  0.00  0.00    +0.000 N 
ATOM     18  C   UNL     1     -11.685   1.981  13.532  0.00  0.00    +0.000 C 
ATOM     19  C   UNL     1     -11.726   4.207  14.283  0.00  0.00    +0.000 C 
ATOM     20  C   UNL     1      -9.745   2.892  14.544  0.00  0.00    +0.000 C 
ENDBRANCH  16  17
ENDBRANCH  15  16
ENDBRANCH  14  15
ENDBRANCH  13  14
ENDBRANCH  12  13
ENDBRANCH  11  12
ENDBRANCH   1  11
TORSDOF 15
ENDMDL
MODEL 8
REMARK VINA RESULT:      -6.4     11.105     14.078
REMARK  Name = human_CD1d_CTAB_pred.rank_0
REMARK  15 active torsions:
REMARK  status: ('A' for Active; 'I' for Inactive)
REMARK    1  A    between atoms: N_2  and  C_17
REMARK    2  A    between atoms: C_3  and  C_4
REMARK    3  A    between atoms: C_4  and  C_5
REMARK    4  A    between atoms: C_5  and  C_6
REMARK    5  A    between atoms: C_6  and  C_7
REMARK    6  A    between atoms: C_7  and  C_8
REMARK    7  A    between atoms: C_8  and  C_9
REMARK    8  A    between atoms: C_9  and  C_10
REMARK    9  A    between atoms: C_10  and  C_11
REMARK   10  A    between atoms: C_11  and  C_12
REMARK   11  A    between atoms: C_12  and  C_13
REMARK   12  A    between atoms: C_13  and  C_14
REMARK   13  A    between atoms: C_14  and  C_15
REMARK   14  A    between atoms: C_15  and  C_16
REMARK   15  A    between atoms: C_16  and  C_17
REMARK                            x       y       z     vdW  Elec       q    Type
REMARK                         _______ _______ _______ _____ _____    ______ ____
ROOT
ATOM      1  C   UNL     1      -9.353   3.020  14.601  0.00  0.00    +0.000 C 
ENDROOT
BRANCH   1   2
ATOM      2  C   UNL     1     -10.719   3.177  15.200  0.00  0.00    +0.000 C 
BRANCH   2   3
ATOM      3  C   UNL     1     -11.758   2.414  14.400  0.00  0.00    +0.000 C 
BRANCH   3   4
ATOM      4  C   UNL     1     -13.087   3.139  14.420  0.00  0.00    +0.000 C 
BRANCH   4   5
ATOM      5  C   UNL     1     -12.874   4.595  14.890  0.00  0.00    +0.000 C 
BRANCH   5   6
ATOM      6  C   UNL     1     -14.027   5.060  15.763  0.00  0.00    +0.000 C 
BRANCH   6   7
ATOM      7  C   UNL     1     -13.825   4.536  17.184  0.00  0.00    +0.000 C 
BRANCH   7   8
ATOM      8  C   UNL     1     -15.069   4.756  18.013  0.00  0.00    +0.000 C 
BRANCH   8  10
ATOM      9  C   UNL     1     -16.017   6.387  19.613  0.00  0.00    +0.000 C 
ATOM     10  C   UNL     1     -15.120   6.219  18.428  0.00  0.00    +0.000 C 
ENDBRANCH   8  10
ENDBRANCH   7   8
ENDBRANCH   6   7
ENDBRANCH   5   6
ENDBRANCH   4   5
ENDBRANCH   3   4
ENDBRANCH   2   3
ENDBRANCH   1   2
BRANCH   1  11
ATOM     11  C   UNL     1      -9.374   3.346  13.122  0.00  0.00    +0.000 C 
BRANCH  11  12
ATOM     12  C   UNL     1      -9.334   4.846  12.928  0.00  0.00    +0.000 C 
BRANCH  12  13
ATOM     13  C   UNL     1     -10.367   5.251  11.898  0.00  0.00    +0.000 C 
BRANCH  13  14
ATOM     14  C   UNL     1     -10.621   4.097  10.941  0.00  0.00    +0.000 C 
BRANCH  14  15
ATOM     15  C   UNL     1     -10.230   4.512   9.510  0.00  0.00    +0.000 C 
BRANCH  15  16
ATOM     16  C   UNL     1     -11.246   3.991   8.504  0.00  0.00    +0.000 C 
BRANCH  16  17
ATOM     17  N   UNL     1     -11.635   5.062   7.578  0.00  0.00    +0.000 N 
ATOM     18  C   UNL     1     -12.489   4.467   6.567  0.00  0.00    +0.000 C 
ATOM     19  C   UNL     1     -10.455   5.585   6.933  0.00  0.00    +0.000 C 
ATOM     20  C   UNL     1     -12.375   6.128   8.254  0.00  0.00    +0.000 C 
ENDBRANCH  16  17
ENDBRANCH  15  16
ENDBRANCH  14  15
ENDBRANCH  13  14
ENDBRANCH  12  13
ENDBRANCH  11  12
ENDBRANCH   1  11
TORSDOF 15
ENDMDL
MODEL 9
REMARK VINA RESULT:      -6.3     10.691     13.101
REMARK  Name = human_CD1d_CTAB_pred.rank_0
REMARK  15 active torsions:
REMARK  status: ('A' for Active; 'I' for Inactive)
REMARK    1  A    between atoms: N_2  and  C_17
REMARK    2  A    between atoms: C_3  and  C_4
REMARK    3  A    between atoms: C_4  and  C_5
REMARK    4  A    between atoms: C_5  and  C_6
REMARK    5  A    between atoms: C_6  and  C_7
REMARK    6  A    between atoms: C_7  and  C_8
REMARK    7  A    between atoms: C_8  and  C_9
REMARK    8  A    between atoms: C_9  and  C_10
REMARK    9  A    between atoms: C_10  and  C_11
REMARK   10  A    between atoms: C_11  and  C_12
REMARK   11  A    between atoms: C_12  and  C_13
REMARK   12  A    between atoms: C_13  and  C_14
REMARK   13  A    between atoms: C_14  and  C_15
REMARK   14  A    between atoms: C_15  and  C_16
REMARK   15  A    between atoms: C_16  and  C_17
REMARK                            x       y       z     vdW  Elec       q    Type
REMARK                         _______ _______ _______ _____ _____    ______ ____
ROOT
ATOM      1  C   UNL     1     -10.835   3.361  15.425  0.00  0.00    +0.000 C 
ENDROOT
BRANCH   1   2
ATOM      2  C   UNL     1     -10.908   3.687  13.962  0.00  0.00    +0.000 C 
BRANCH   2   3
ATOM      3  C   UNL     1     -10.895   2.426  13.119  0.00  0.00    +0.000 C 
BRANCH   3   4
ATOM      4  C   UNL     1     -11.854   2.552  11.954  0.00  0.00    +0.000 C 
BRANCH   4   5
ATOM      5  C   UNL     1     -12.879   1.397  12.003  0.00  0.00    +0.000 C 
BRANCH   5   6
ATOM      6  C   UNL     1     -14.165   1.839  12.681  0.00  0.00    +0.000 C 
BRANCH   6   7
ATOM      7  C   UNL     1     -14.152   1.370  14.135  0.00  0.00    +0.000 C 
BRANCH   7   8
ATOM      8  C   UNL     1     -13.845  -0.108  14.214  0.00  0.00    +0.000 C 
BRANCH   8  10
ATOM      9  C   UNL     1     -13.482  -0.278  16.654  0.00  0.00    +0.000 C 
ATOM     10  C   UNL     1     -12.820  -0.330  15.314  0.00  0.00    +0.000 C 
ENDBRANCH   8  10
ENDBRANCH   7   8
ENDBRANCH   6   7
ENDBRANCH   5   6
ENDBRANCH   4   5
ENDBRANCH   3   4
ENDBRANCH   2   3
ENDBRANCH   1   2
BRANCH   1  11
ATOM     11  C   UNL     1     -12.133   3.716  16.119  0.00  0.00    +0.000 C 
BRANCH  11  12
ATOM     12  C   UNL     1     -12.934   4.663  15.254  0.00  0.00    +0.000 C 
BRANCH  12  13
ATOM     13  C   UNL     1     -14.248   4.982  15.935  0.00  0.00    +0.000 C 
BRANCH  13  14
ATOM     14  C   UNL     1     -14.204   4.520  17.382  0.00  0.00    +0.000 C 
BRANCH  14  15
ATOM     15  C   UNL     1     -15.040   5.473  18.258  0.00  0.00    +0.000 C 
BRANCH  15  16
ATOM     16  C   UNL     1     -14.368   5.690  19.607  0.00  0.00    +0.000 C 
BRANCH  16  17
ATOM     17  N   UNL     1     -15.027   6.786  20.329  0.00  0.00    +0.000 N 
ATOM     18  C   UNL     1     -16.171   6.219  21.019  0.00  0.00    +0.000 C 
ATOM     19  C   UNL     1     -15.501   7.764  19.380  0.00  0.00    +0.000 C 
ATOM     20  C   UNL     1     -14.139   7.404  21.313  0.00  0.00    +0.000 C 
ENDBRANCH  16  17
ENDBRANCH  15  16
ENDBRANCH  14  15
ENDBRANCH  13  14
ENDBRANCH  12  13
ENDBRANCH  11  12
ENDBRANCH   1  11
TORSDOF 15
ENDMDL
