MODEL 1
REMARK VINA RESULT:      -9.9      0.000      0.000
REMARK  Name = human_CD1d_CHAPS_pred.rank_0
REMARK  12 active torsions:
REMARK  status: ('A' for Active; 'I' for Inactive)
REMARK    1  A    between atoms: N_2  and  C_14
REMARK    2  A    between atoms: S_4  and  C_23
REMARK    3  A    between atoms: C_5  and  C_8
REMARK    4  A    between atoms: C_5  and  C_24
REMARK    5  A    between atoms: N_6  and  C_18
REMARK    6  A    between atoms: N_6  and  C_21
REMARK    7  A    between atoms: C_8  and  C_10
REMARK    8  A    between atoms: C_10  and  C_12
REMARK    9  A    between atoms: C_14  and  C_16
REMARK   10  A    between atoms: C_16  and  C_18
REMARK   11  A    between atoms: C_21  and  C_22
REMARK   12  A    between atoms: C_22  and  C_23
REMARK                            x       y       z     vdW  Elec       q    Type
REMARK                         _______ _______ _______ _____ _____    ______ ____
ROOT
ATOM      1  O   UNL     1      -1.320   6.222  22.917  0.00  0.00    +0.000 OA
ATOM      2  O   UNL     1      -6.483   7.756  22.163  0.00  0.00    +0.000 OA
ATOM      3  O   UNL     1      -8.125   4.881  19.562  0.00  0.00    +0.000 OA
ATOM      4  C   UNL     1     -10.742   5.263  20.874  0.00  0.00    +0.000 C 
ATOM      5  C   UNL     1     -11.197   6.347  21.885  0.00  0.00    +0.000 C 
ATOM      6  C   UNL     1      -9.995   6.670  22.754  0.00  0.00    +0.000 C 
ATOM      7  C   UNL     1      -8.833   5.962  22.080  0.00  0.00    +0.000 C 
ATOM      8  C   UNL     1      -9.474   4.673  21.566  0.00  0.00    +0.000 C 
ATOM      9  C   UNL     1      -8.427   4.011  20.672  0.00  0.00    +0.000 C 
ATOM     10  C   UNL     1      -7.113   3.690  21.480  0.00  0.00    +0.000 C 
ATOM     11  C   UNL     1      -6.517   4.901  22.209  0.00  0.00    +0.000 C 
ATOM     12  C   UNL     1      -7.576   5.724  22.941  0.00  0.00    +0.000 C 
ATOM     13  C   UNL     1      -6.961   7.111  23.318  0.00  0.00    +0.000 C 
ATOM     14  C   UNL     1      -5.812   6.809  24.348  0.00  0.00    +0.000 C 
ATOM     15  C   UNL     1      -4.843   5.737  24.001  0.00  0.00    +0.000 C 
ATOM     16  C   UNL     1      -5.324   4.521  23.164  0.00  0.00    +0.000 C 
ATOM     17  C   UNL     1      -4.200   3.852  22.319  0.00  0.00    +0.000 C 
ATOM     18  C   UNL     1      -2.961   4.700  22.037  0.00  0.00    +0.000 C 
ATOM     19  C   UNL     1      -2.554   5.527  23.220  0.00  0.00    +0.000 C 
ATOM     20  C   UNL     1      -3.650   6.502  23.441  0.00  0.00    +0.000 C 
ATOM     21  C   UNL     1      -5.697   3.522  24.163  0.00  0.00    +0.000 C 
ATOM     22  C   UNL     1      -9.917   3.697  22.649  0.00  0.00    +0.000 C 
ENDROOT
BRANCH   4  24
ATOM     23  C   UNL     1     -11.532   3.389  19.369  0.00  0.00    +0.000 C 
ATOM     24  C   UNL     1     -11.879   4.291  20.524  0.00  0.00    +0.000 C 
BRANCH  24  25
ATOM     25  C   UNL     1     -13.150   5.140  20.164  0.00  0.00    +0.000 C 
BRANCH  25  26
ATOM     26  C   UNL     1     -14.270   4.212  19.735  0.00  0.00    +0.000 C 
BRANCH  26  29
ATOM     27  N   UNL     1     -13.755   4.885  17.424  0.00  0.00    +0.000 NA
ATOM     28  O   UNL     1     -15.912   4.693  18.049  0.00  0.00    +0.000 OA
ATOM     29  C   UNL     1     -14.727   4.647  18.333  0.00  0.00    +0.000 C 
BRANCH  27  30
ATOM     30  C   UNL     1     -14.127   5.145  15.989  0.00  0.00    +0.000 C 
BRANCH  30  31
ATOM     31  C   UNL     1     -13.387   4.204  15.021  0.00  0.00    +0.000 C 
BRANCH  31  32
ATOM     32  C   UNL     1     -12.064   3.798  15.554  0.00  0.00    +0.000 C 
BRANCH  32  33
ATOM     33  N   UNL     1     -11.266   3.110  14.521  0.00  0.00    +0.000 N 
ATOM     34  C   UNL     1      -9.871   3.262  14.876  0.00  0.00    +0.000 C 
ATOM     35  C   UNL     1     -11.586   1.696  14.407  0.00  0.00    +0.000 C 
BRANCH  33  36
ATOM     36  C   UNL     1     -11.515   3.785  13.192  0.00  0.00    +0.000 C 
BRANCH  36  37
ATOM     37  C   UNL     1     -10.403   4.812  12.779  0.00  0.00    +0.000 C 
BRANCH  37  38
ATOM     38  C   UNL     1     -10.504   5.094  11.309  0.00  0.00    +0.000 C 
BRANCH  38  39
ATOM     39  S   UNL     1      -8.997   4.756  10.580  0.00  0.00    +0.000 S 
ATOM     40  O   UNL     1      -8.223   5.982  10.526  0.00  0.00    +0.000 OA
ATOM     41  O   UNL     1      -9.170   4.189   9.233  0.00  0.00    +0.000 OA
ATOM     42  O   UNL     1      -8.314   3.747  11.409  0.00  0.00    +0.000 OA
ENDBRANCH  38  39
ENDBRANCH  37  38
ENDBRANCH  36  37
ENDBRANCH  33  36
ENDBRANCH  32  33
ENDBRANCH  31  32
ENDBRANCH  30  31
ENDBRANCH  27  30
ENDBRANCH  26  29
ENDBRANCH  25  26
ENDBRANCH  24  25
ENDBRANCH   4  24
TORSDOF 12
ENDMDL
MODEL 2
REMARK VINA RESULT:      -9.6      2.804      3.166
REMARK  Name = human_CD1d_CHAPS_pred.rank_0
REMARK  12 active torsions:
REMARK  status: ('A' for Active; 'I' for Inactive)
REMARK    1  A    between atoms: N_2  and  C_14
REMARK    2  A    between atoms: S_4  and  C_23
REMARK    3  A    between atoms: C_5  and  C_8
REMARK    4  A    between atoms: C_5  and  C_24
REMARK    5  A    between atoms: N_6  and  C_18
REMARK    6  A    between atoms: N_6  and  C_21
REMARK    7  A    between atoms: C_8  and  C_10
REMARK    8  A    between atoms: C_10  and  C_12
REMARK    9  A    between atoms: C_14  and  C_16
REMARK   10  A    between atoms: C_16  and  C_18
REMARK   11  A    between atoms: C_21  and  C_22
REMARK   12  A    between atoms: C_22  and  C_23
REMARK                            x       y       z     vdW  Elec       q    Type
REMARK                         _______ _______ _______ _____ _____    ______ ____
ROOT
ATOM      1  O   UNL     1      -1.415   6.125  23.045  0.00  0.00    +0.000 OA
ATOM      2  O   UNL     1      -6.574   7.687  22.320  0.00  0.00    +0.000 OA
ATOM      3  O   UNL     1      -8.175   4.963  19.537  0.00  0.00    +0.000 OA
ATOM      4  C   UNL     1     -10.809   5.261  20.836  0.00  0.00    +0.000 C 
ATOM      5  C   UNL     1     -11.279   6.283  21.904  0.00  0.00    +0.000 C 
ATOM      6  C   UNL     1     -10.089   6.559  22.804  0.00  0.00    +0.000 C 
ATOM      7  C   UNL     1      -8.916   5.893  22.104  0.00  0.00    +0.000 C 
ATOM      8  C   UNL     1      -9.548   4.635  21.509  0.00  0.00    +0.000 C 
ATOM      9  C   UNL     1      -8.487   4.029  20.590  0.00  0.00    +0.000 C 
ATOM     10  C   UNL     1      -7.182   3.665  21.393  0.00  0.00    +0.000 C 
ATOM     11  C   UNL     1      -6.598   4.834  22.199  0.00  0.00    +0.000 C 
ATOM     12  C   UNL     1      -7.669   5.610  22.965  0.00  0.00    +0.000 C 
ATOM     13  C   UNL     1      -7.063   6.974  23.429  0.00  0.00    +0.000 C 
ATOM     14  C   UNL     1      -5.925   6.616  24.454  0.00  0.00    +0.000 C 
ATOM     15  C   UNL     1      -4.948   5.569  24.057  0.00  0.00    +0.000 C 
ATOM     16  C   UNL     1      -5.416   4.402  23.144  0.00  0.00    +0.000 C 
ATOM     17  C   UNL     1      -4.280   3.787  22.275  0.00  0.00    +0.000 C 
ATOM     18  C   UNL     1      -3.041   4.652  22.059  0.00  0.00    +0.000 C 
ATOM     19  C   UNL     1      -2.650   5.411  23.292  0.00  0.00    +0.000 C 
ATOM     20  C   UNL     1      -3.752   6.367  23.556  0.00  0.00    +0.000 C 
ATOM     21  C   UNL     1      -5.798   3.346  24.079  0.00  0.00    +0.000 C 
ATOM     22  C   UNL     1      -9.999   3.597  22.527  0.00  0.00    +0.000 C 
ENDROOT
BRANCH   4  24
ATOM     23  C   UNL     1     -11.529   3.384  19.301  0.00  0.00    +0.000 C 
ATOM     24  C   UNL     1     -11.938   4.308  20.417  0.00  0.00    +0.000 C 
BRANCH  24  25
ATOM     25  C   UNL     1     -13.161   5.178  19.956  0.00  0.00    +0.000 C 
BRANCH  25  26
ATOM     26  C   UNL     1     -14.359   4.278  19.722  0.00  0.00    +0.000 C 
BRANCH  26  29
ATOM     27  N   UNL     1     -14.031   4.807  17.341  0.00  0.00    +0.000 NA
ATOM     28  O   UNL     1     -16.131   4.607  18.134  0.00  0.00    +0.000 OA
ATOM     29  C   UNL     1     -14.928   4.608  18.332  0.00  0.00    +0.000 C 
BRANCH  27  30
ATOM     30  C   UNL     1     -14.513   4.962  15.923  0.00  0.00    +0.000 C 
BRANCH  30  31
ATOM     31  C   UNL     1     -13.503   4.400  14.906  0.00  0.00    +0.000 C 
BRANCH  31  32
ATOM     32  C   UNL     1     -12.636   3.359  15.509  0.00  0.00    +0.000 C 
BRANCH  32  33
ATOM     33  N   UNL     1     -12.567   2.163  14.647  0.00  0.00    +0.000 N 
ATOM     34  C   UNL     1     -11.222   2.085  14.119  0.00  0.00    +0.000 C 
ATOM     35  C   UNL     1     -12.881   0.934  15.358  0.00  0.00    +0.000 C 
BRANCH  33  36
ATOM     36  C   UNL     1     -13.539   2.339  13.503  0.00  0.00    +0.000 C 
BRANCH  36  37
ATOM     37  C   UNL     1     -13.681   1.074  12.586  0.00  0.00    +0.000 C 
BRANCH  37  38
ATOM     38  C   UNL     1     -15.070   1.017  12.023  0.00  0.00    +0.000 C 
BRANCH  38  39
ATOM     39  S   UNL     1     -15.548  -0.618  11.907  0.00  0.00    +0.000 S 
ATOM     40  O   UNL     1     -14.897  -1.368  12.965  0.00  0.00    +0.000 OA
ATOM     41  O   UNL     1     -15.213  -1.181  10.589  0.00  0.00    +0.000 OA
ATOM     42  O   UNL     1     -17.013  -0.671  12.059  0.00  0.00    +0.000 OA
ENDBRANCH  38  39
ENDBRANCH  37  38
ENDBRANCH  36  37
ENDBRANCH  33  36
ENDBRANCH  32  33
ENDBRANCH  31  32
ENDBRANCH  30  31
ENDBRANCH  27  30
ENDBRANCH  26  29
ENDBRANCH  25  26
ENDBRANCH  24  25
ENDBRANCH   4  24
TORSDOF 12
ENDMDL
MODEL 3
REMARK VINA RESULT:      -9.5      1.943      3.641
REMARK  Name = human_CD1d_CHAPS_pred.rank_0
REMARK  12 active torsions:
REMARK  status: ('A' for Active; 'I' for Inactive)
REMARK    1  A    between atoms: N_2  and  C_14
REMARK    2  A    between atoms: S_4  and  C_23
REMARK    3  A    between atoms: C_5  and  C_8
REMARK    4  A    between atoms: C_5  and  C_24
REMARK    5  A    between atoms: N_6  and  C_18
REMARK    6  A    between atoms: N_6  and  C_21
REMARK    7  A    between atoms: C_8  and  C_10
REMARK    8  A    between atoms: C_10  and  C_12
REMARK    9  A    between atoms: C_14  and  C_16
REMARK   10  A    between atoms: C_16  and  C_18
REMARK   11  A    between atoms: C_21  and  C_22
REMARK   12  A    between atoms: C_22  and  C_23
REMARK                            x       y       z     vdW  Elec       q    Type
REMARK                         _______ _______ _______ _____ _____    ______ ____
ROOT
ATOM      1  O   UNL     1       0.684   6.755  26.764  0.00  0.00    +0.000 OA
ATOM      2  O   UNL     1      -4.184   4.400  26.178  0.00  0.00    +0.000 OA
ATOM      3  O   UNL     1      -6.392   7.014  23.725  0.00  0.00    +0.000 OA
ATOM      4  C   UNL     1      -7.824   4.683  22.616  0.00  0.00    +0.000 C 
ATOM      5  C   UNL     1      -7.834   3.207  23.090  0.00  0.00    +0.000 C 
ATOM      6  C   UNL     1      -6.446   2.907  23.625  0.00  0.00    +0.000 C 
ATOM      7  C   UNL     1      -5.754   4.258  23.675  0.00  0.00    +0.000 C 
ATOM      8  C   UNL     1      -6.300   4.964  22.435  0.00  0.00    +0.000 C 
ATOM      9  C   UNL     1      -5.834   6.415  22.539  0.00  0.00    +0.000 C 
ATOM     10  C   UNL     1      -4.261   6.504  22.577  0.00  0.00    +0.000 C 
ATOM     11  C   UNL     1      -3.614   5.646  23.673  0.00  0.00    +0.000 C 
ATOM     12  C   UNL     1      -4.213   4.242  23.749  0.00  0.00    +0.000 C 
ATOM     13  C   UNL     1      -3.785   3.587  25.101  0.00  0.00    +0.000 C 
ATOM     14  C   UNL     1      -2.223   3.423  25.028  0.00  0.00    +0.000 C 
ATOM     15  C   UNL     1      -1.429   4.600  24.592  0.00  0.00    +0.000 C 
ATOM     16  C   UNL     1      -2.044   5.595  23.570  0.00  0.00    +0.000 C 
ATOM     17  C   UNL     1      -1.487   7.044  23.686  0.00  0.00    +0.000 C 
ATOM     18  C   UNL     1      -0.823   7.417  25.010  0.00  0.00    +0.000 C 
ATOM     19  C   UNL     1       0.005   6.298  25.569  0.00  0.00    +0.000 C 
ATOM     20  C   UNL     1      -0.943   5.207  25.902  0.00  0.00    +0.000 C 
ATOM     21  C   UNL     1      -1.579   5.109  22.272  0.00  0.00    +0.000 C 
ATOM     22  C   UNL     1      -5.848   4.373  21.105  0.00  0.00    +0.000 C 
ENDROOT
BRANCH   4  24
ATOM     23  C   UNL     1      -9.211   6.327  21.285  0.00  0.00    +0.000 C 
ATOM     24  C   UNL     1      -8.737   4.903  21.401  0.00  0.00    +0.000 C 
BRANCH  24  25
ATOM     25  C   UNL     1      -9.976   3.948  21.546  0.00  0.00    +0.000 C 
BRANCH  25  26
ATOM     26  C   UNL     1     -10.252   3.277  20.215  0.00  0.00    +0.000 C 
BRANCH  26  29
ATOM     27  N   UNL     1     -11.940   3.439  18.431  0.00  0.00    +0.000 NA
ATOM     28  O   UNL     1     -12.247   4.609  20.333  0.00  0.00    +0.000 OA
ATOM     29  C   UNL     1     -11.559   3.863  19.657  0.00  0.00    +0.000 C 
BRANCH  27  30
ATOM     30  C   UNL     1     -13.290   3.833  17.895  0.00  0.00    +0.000 C 
BRANCH  30  31
ATOM     31  C   UNL     1     -13.211   4.328  16.440  0.00  0.00    +0.000 C 
BRANCH  31  32
ATOM     32  C   UNL     1     -12.032   3.771  15.733  0.00  0.00    +0.000 C 
BRANCH  32  33
ATOM     33  N   UNL     1     -12.445   2.841  14.665  0.00  0.00    +0.000 N 
ATOM     34  C   UNL     1     -12.434   1.505  15.223  0.00  0.00    +0.000 C 
ATOM     35  C   UNL     1     -13.769   3.135  14.140  0.00  0.00    +0.000 C 
BRANCH  33  36
ATOM     36  C   UNL     1     -11.436   2.918  13.543  0.00  0.00    +0.000 C 
BRANCH  36  37
ATOM     37  C   UNL     1     -10.274   3.942  13.798  0.00  0.00    +0.000 C 
BRANCH  37  38
ATOM     38  C   UNL     1     -10.337   5.035  12.773  0.00  0.00    +0.000 C 
BRANCH  38  39
ATOM     39  S   UNL     1      -9.333   4.612  11.458  0.00  0.00    +0.000 S 
ATOM     40  O   UNL     1      -8.434   3.555  11.883  0.00  0.00    +0.000 OA
ATOM     41  O   UNL     1      -8.574   5.774  10.968  0.00  0.00    +0.000 OA
ATOM     42  O   UNL     1     -10.200   4.146  10.361  0.00  0.00    +0.000 OA
ENDBRANCH  38  39
ENDBRANCH  37  38
ENDBRANCH  36  37
ENDBRANCH  33  36
ENDBRANCH  32  33
ENDBRANCH  31  32
ENDBRANCH  30  31
ENDBRANCH  27  30
ENDBRANCH  26  29
ENDBRANCH  25  26
ENDBRANCH  24  25
ENDBRANCH   4  24
TORSDOF 12
ENDMDL
MODEL 4
REMARK VINA RESULT:      -9.4      3.258      4.764
REMARK  Name = human_CD1d_CHAPS_pred.rank_0
REMARK  12 active torsions:
REMARK  status: ('A' for Active; 'I' for Inactive)
REMARK    1  A    between atoms: N_2  and  C_14
REMARK    2  A    between atoms: S_4  and  C_23
REMARK    3  A    between atoms: C_5  and  C_8
REMARK    4  A    between atoms: C_5  and  C_24
REMARK    5  A    between atoms: N_6  and  C_18
REMARK    6  A    between atoms: N_6  and  C_21
REMARK    7  A    between atoms: C_8  and  C_10
REMARK    8  A    between atoms: C_10  and  C_12
REMARK    9  A    between atoms: C_14  and  C_16
REMARK   10  A    between atoms: C_16  and  C_18
REMARK   11  A    between atoms: C_21  and  C_22
REMARK   12  A    between atoms: C_22  and  C_23
REMARK                            x       y       z     vdW  Elec       q    Type
REMARK                         _______ _______ _______ _____ _____    ______ ____
ROOT
ATOM      1  O   UNL     1       0.699   6.845  26.873  0.00  0.00    +0.000 OA
ATOM      2  O   UNL     1      -4.104   4.374  26.236  0.00  0.00    +0.000 OA
ATOM      3  O   UNL     1      -6.362   6.954  23.792  0.00  0.00    +0.000 OA
ATOM      4  C   UNL     1      -7.728   4.598  22.653  0.00  0.00    +0.000 C 
ATOM      5  C   UNL     1      -7.704   3.117  23.115  0.00  0.00    +0.000 C 
ATOM      6  C   UNL     1      -6.312   2.848  23.656  0.00  0.00    +0.000 C 
ATOM      7  C   UNL     1      -5.654   4.215  23.722  0.00  0.00    +0.000 C 
ATOM      8  C   UNL     1      -6.211   4.918  22.484  0.00  0.00    +0.000 C 
ATOM      9  C   UNL     1      -5.781   6.380  22.604  0.00  0.00    +0.000 C 
ATOM     10  C   UNL     1      -4.212   6.508  22.653  0.00  0.00    +0.000 C 
ATOM     11  C   UNL     1      -3.550   5.657  23.745  0.00  0.00    +0.000 C 
ATOM     12  C   UNL     1      -4.114   4.238  23.805  0.00  0.00    +0.000 C 
ATOM     13  C   UNL     1      -3.678   3.581  25.154  0.00  0.00    +0.000 C 
ATOM     14  C   UNL     1      -2.112   3.457  25.089  0.00  0.00    +0.000 C 
ATOM     15  C   UNL     1      -1.345   4.658  24.669  0.00  0.00    +0.000 C 
ATOM     16  C   UNL     1      -1.979   5.646  23.651  0.00  0.00    +0.000 C 
ATOM     17  C   UNL     1      -1.459   7.107  23.784  0.00  0.00    +0.000 C 
ATOM     18  C   UNL     1      -0.813   7.484  25.115  0.00  0.00    +0.000 C 
ATOM     19  C   UNL     1       0.040   6.382  25.669  0.00  0.00    +0.000 C 
ATOM     20  C   UNL     1      -0.882   5.265  25.987  0.00  0.00    +0.000 C 
ATOM     21  C   UNL     1      -1.494   5.183  22.353  0.00  0.00    +0.000 C 
ATOM     22  C   UNL     1      -5.736   4.351  21.152  0.00  0.00    +0.000 C 
ENDROOT
BRANCH   4  24
ATOM     23  C   UNL     1      -9.024   6.248  21.240  0.00  0.00    +0.000 C 
ATOM     24  C   UNL     1      -8.639   4.805  21.434  0.00  0.00    +0.000 C 
BRANCH  24  25
ATOM     25  C   UNL     1      -9.934   3.940  21.643  0.00  0.00    +0.000 C 
BRANCH  25  26
ATOM     26  C   UNL     1     -10.308   3.271  20.335  0.00  0.00    +0.000 C 
BRANCH  26  29
ATOM     27  N   UNL     1     -12.044   3.534  18.611  0.00  0.00    +0.000 NA
ATOM     28  O   UNL     1     -12.227   4.702  20.530  0.00  0.00    +0.000 OA
ATOM     29  C   UNL     1     -11.601   3.928  19.826  0.00  0.00    +0.000 C 
BRANCH  27  30
ATOM     30  C   UNL     1     -13.390   4.001  18.123  0.00  0.00    +0.000 C 
BRANCH  30  31
ATOM     31  C   UNL     1     -13.559   3.791  16.609  0.00  0.00    +0.000 C 
BRANCH  31  32
ATOM     32  C   UNL     1     -12.718   2.676  16.111  0.00  0.00    +0.000 C 
BRANCH  32  33
ATOM     33  N   UNL     1     -12.506   2.782  14.654  0.00  0.00    +0.000 N 
ATOM     34  C   UNL     1     -12.112   4.146  14.370  0.00  0.00    +0.000 C 
ATOM     35  C   UNL     1     -11.486   1.870  14.163  0.00  0.00    +0.000 C 
BRANCH  33  36
ATOM     36  C   UNL     1     -13.814   2.489  13.956  0.00  0.00    +0.000 C 
BRANCH  36  37
ATOM     37  C   UNL     1     -13.749   1.281  12.957  0.00  0.00    +0.000 C 
BRANCH  37  38
ATOM     38  C   UNL     1     -15.093   1.085  12.320  0.00  0.00    +0.000 C 
BRANCH  38  39
ATOM     39  S   UNL     1     -15.404  -0.589  12.199  0.00  0.00    +0.000 S 
ATOM     40  O   UNL     1     -16.837  -0.787  12.081  0.00  0.00    +0.000 OA
ATOM     41  O   UNL     1     -14.872  -1.318  13.362  0.00  0.00    +0.000 OA
ATOM     42  O   UNL     1     -14.710  -1.090  10.999  0.00  0.00    +0.000 OA
ENDBRANCH  38  39
ENDBRANCH  37  38
ENDBRANCH  36  37
ENDBRANCH  33  36
ENDBRANCH  32  33
ENDBRANCH  31  32
ENDBRANCH  30  31
ENDBRANCH  27  30
ENDBRANCH  26  29
ENDBRANCH  25  26
ENDBRANCH  24  25
ENDBRANCH   4  24
TORSDOF 12
ENDMDL
MODEL 5
REMARK VINA RESULT:      -8.6      4.673      7.667
REMARK  Name = human_CD1d_CHAPS_pred.rank_0
REMARK  12 active torsions:
REMARK  status: ('A' for Active; 'I' for Inactive)
REMARK    1  A    between atoms: N_2  and  C_14
REMARK    2  A    between atoms: S_4  and  C_23
REMARK    3  A    between atoms: C_5  and  C_8
REMARK    4  A    between atoms: C_5  and  C_24
REMARK    5  A    between atoms: N_6  and  C_18
REMARK    6  A    between atoms: N_6  and  C_21
REMARK    7  A    between atoms: C_8  and  C_10
REMARK    8  A    between atoms: C_10  and  C_12
REMARK    9  A    between atoms: C_14  and  C_16
REMARK   10  A    between atoms: C_16  and  C_18
REMARK   11  A    between atoms: C_21  and  C_22
REMARK   12  A    between atoms: C_22  and  C_23
REMARK                            x       y       z     vdW  Elec       q    Type
REMARK                         _______ _______ _______ _____ _____    ______ ____
ROOT
ATOM      1  O   UNL     1      -1.444   5.938  23.038  0.00  0.00    +0.000 OA
ATOM      2  O   UNL     1      -6.554   7.555  22.112  0.00  0.00    +0.000 OA
ATOM      3  O   UNL     1      -8.151   4.713  19.449  0.00  0.00    +0.000 OA
ATOM      4  C   UNL     1     -10.805   5.133  20.671  0.00  0.00    +0.000 C 
ATOM      5  C   UNL     1     -11.277   6.222  21.670  0.00  0.00    +0.000 C 
ATOM      6  C   UNL     1     -10.101   6.524  22.580  0.00  0.00    +0.000 C 
ATOM      7  C   UNL     1      -8.928   5.798  21.944  0.00  0.00    +0.000 C 
ATOM      8  C   UNL     1      -9.572   4.521  21.405  0.00  0.00    +0.000 C 
ATOM      9  C   UNL     1      -8.505   3.845  20.545  0.00  0.00    +0.000 C 
ATOM     10  C   UNL     1      -7.224   3.501  21.396  0.00  0.00    +0.000 C 
ATOM     11  C   UNL     1      -6.634   4.701  22.149  0.00  0.00    +0.000 C 
ATOM     12  C   UNL     1      -7.705   5.539  22.847  0.00  0.00    +0.000 C 
ATOM     13  C   UNL     1      -7.081   6.915  23.249  0.00  0.00    +0.000 C 
ATOM     14  C   UNL     1      -5.973   6.593  24.316  0.00  0.00    +0.000 C 
ATOM     15  C   UNL     1      -5.009   5.507  24.000  0.00  0.00    +0.000 C 
ATOM     16  C   UNL     1      -5.481   4.300  23.143  0.00  0.00    +0.000 C 
ATOM     17  C   UNL     1      -4.340   3.616  22.335  0.00  0.00    +0.000 C 
ATOM     18  C   UNL     1      -3.079   4.444  22.098  0.00  0.00    +0.000 C 
ATOM     19  C   UNL     1      -2.699   5.262  23.296  0.00  0.00    +0.000 C 
ATOM     20  C   UNL     1      -3.787   6.253  23.483  0.00  0.00    +0.000 C 
ATOM     21  C   UNL     1      -5.904   3.305  24.126  0.00  0.00    +0.000 C 
ATOM     22  C   UNL     1     -10.066   3.550  22.469  0.00  0.00    +0.000 C 
ENDROOT
BRANCH   4  24
ATOM     23  C   UNL     1     -11.821   3.684  18.864  0.00  0.00    +0.000 C 
ATOM     24  C   UNL     1     -11.945   4.180  20.280  0.00  0.00    +0.000 C 
BRANCH  24  25
ATOM     25  C   UNL     1     -13.302   4.951  20.450  0.00  0.00    +0.000 C 
BRANCH  25  26
ATOM     26  C   UNL     1     -14.235   4.584  19.312  0.00  0.00    +0.000 C 
BRANCH  26  29
ATOM     27  N   UNL     1     -15.082   6.848  19.772  0.00  0.00    +0.000 NA
ATOM     28  O   UNL     1     -15.271   6.016  17.686  0.00  0.00    +0.000 OA
ATOM     29  C   UNL     1     -14.938   5.870  18.849  0.00  0.00    +0.000 C 
BRANCH  27  30
ATOM     30  C   UNL     1     -15.601   8.196  19.350  0.00  0.00    +0.000 C 
BRANCH  30  31
ATOM     31  C   UNL     1     -15.027   9.333  20.214  0.00  0.00    +0.000 C 
BRANCH  31  32
ATOM     32  C   UNL     1     -14.645   8.856  21.565  0.00  0.00    +0.000 C 
BRANCH  32  33
ATOM     33  N   UNL     1     -15.498   9.468  22.603  0.00  0.00    +0.000 N 
ATOM     34  C   UNL     1     -16.036  10.695  22.055  0.00  0.00    +0.000 C 
ATOM     35  C   UNL     1     -16.590   8.604  23.019  0.00  0.00    +0.000 C 
BRANCH  33  36
ATOM     36  C   UNL     1     -14.637   9.796  23.800  0.00  0.00    +0.000 C 
BRANCH  36  37
ATOM     37  C   UNL     1     -14.879  11.231  24.387  0.00  0.00    +0.000 C 
BRANCH  37  38
ATOM     38  C   UNL     1     -13.601  11.753  24.975  0.00  0.00    +0.000 C 
BRANCH  38  39
ATOM     39  S   UNL     1     -13.674  13.459  25.016  0.00  0.00    +0.000 S 
ATOM     40  O   UNL     1     -14.327  13.865  26.247  0.00  0.00    +0.000 OA
ATOM     41  O   UNL     1     -14.391  13.992  23.846  0.00  0.00    +0.000 OA
ATOM     42  O   UNL     1     -12.292  13.969  24.968  0.00  0.00    +0.000 OA
ENDBRANCH  38  39
ENDBRANCH  37  38
ENDBRANCH  36  37
ENDBRANCH  33  36
ENDBRANCH  32  33
ENDBRANCH  31  32
ENDBRANCH  30  31
ENDBRANCH  27  30
ENDBRANCH  26  29
ENDBRANCH  25  26
ENDBRANCH  24  25
ENDBRANCH   4  24
TORSDOF 12
ENDMDL
MODEL 6
REMARK VINA RESULT:      -8.2      6.253     13.031
REMARK  Name = human_CD1d_CHAPS_pred.rank_0
REMARK  12 active torsions:
REMARK  status: ('A' for Active; 'I' for Inactive)
REMARK    1  A    between atoms: N_2  and  C_14
REMARK    2  A    between atoms: S_4  and  C_23
REMARK    3  A    between atoms: C_5  and  C_8
REMARK    4  A    between atoms: C_5  and  C_24
REMARK    5  A    between atoms: N_6  and  C_18
REMARK    6  A    between atoms: N_6  and  C_21
REMARK    7  A    between atoms: C_8  and  C_10
REMARK    8  A    between atoms: C_10  and  C_12
REMARK    9  A    between atoms: C_14  and  C_16
REMARK   10  A    between atoms: C_16  and  C_18
REMARK   11  A    between atoms: C_21  and  C_22
REMARK   12  A    between atoms: C_22  and  C_23
REMARK                            x       y       z     vdW  Elec       q    Type
REMARK                         _______ _______ _______ _____ _____    ______ ____
ROOT
ATOM      1  O   UNL     1     -24.381   9.763  19.398  0.00  0.00    +0.000 OA
ATOM      2  O   UNL     1     -19.751   9.966  22.245  0.00  0.00    +0.000 OA
ATOM      3  O   UNL     1     -17.515   6.637  20.965  0.00  0.00    +0.000 OA
ATOM      4  C   UNL     1     -15.042   8.178  21.437  0.00  0.00    +0.000 C 
ATOM      5  C   UNL     1     -14.843   9.538  22.157  0.00  0.00    +0.000 C 
ATOM      6  C   UNL     1     -16.071  10.378  21.858  0.00  0.00    +0.000 C 
ATOM      7  C   UNL     1     -17.041   9.417  21.194  0.00  0.00    +0.000 C 
ATOM      8  C   UNL     1     -16.119   8.525  20.363  0.00  0.00    +0.000 C 
ATOM      9  C   UNL     1     -16.993   7.383  19.847  0.00  0.00    +0.000 C 
ATOM     10  C   UNL     1     -18.177   7.930  18.962  0.00  0.00    +0.000 C 
ATOM     11  C   UNL     1     -19.033   8.998  19.656  0.00  0.00    +0.000 C 
ATOM     12  C   UNL     1     -18.189  10.047  20.379  0.00  0.00    +0.000 C 
ATOM     13  C   UNL     1     -19.111  10.848  21.354  0.00  0.00    +0.000 C 
ATOM     14  C   UNL     1     -20.135  11.620  20.445  0.00  0.00    +0.000 C 
ATOM     15  C   UNL     1     -20.825  10.848  19.379  0.00  0.00    +0.000 C 
ATOM     16  C   UNL     1     -20.082   9.669  18.693  0.00  0.00    +0.000 C 
ATOM     17  C   UNL     1     -21.028   8.565  18.136  0.00  0.00    +0.000 C 
ATOM     18  C   UNL     1     -22.439   8.517  18.719  0.00  0.00    +0.000 C 
ATOM     19  C   UNL     1     -23.011   9.885  18.945  0.00  0.00    +0.000 C 
ATOM     20  C   UNL     1     -22.176  10.514  19.998  0.00  0.00    +0.000 C 
ATOM     21  C   UNL     1     -19.462  10.272  17.516  0.00  0.00    +0.000 C 
ATOM     22  C   UNL     1     -15.436   9.219  19.191  0.00  0.00    +0.000 C 
ENDROOT
BRANCH   4  24
ATOM     23  C   UNL     1     -13.815   6.117  20.635  0.00  0.00    +0.000 C 
ATOM     24  C   UNL     1     -13.712   7.587  20.947  0.00  0.00    +0.000 C 
BRANCH  24  25
ATOM     25  C   UNL     1     -12.638   7.811  22.071  0.00  0.00    +0.000 C 
BRANCH  25  26
ATOM     26  C   UNL     1     -11.272   7.982  21.434  0.00  0.00    +0.000 C 
BRANCH  26  29
ATOM     27  N   UNL     1      -8.951   7.605  22.158  0.00  0.00    +0.000 NA
ATOM     28  O   UNL     1     -10.610   6.475  23.183  0.00  0.00    +0.000 OA
ATOM     29  C   UNL     1     -10.248   7.258  22.322  0.00  0.00    +0.000 C 
BRANCH  27  30
ATOM     30  C   UNL     1      -7.913   7.069  23.108  0.00  0.00    +0.000 C 
BRANCH  30  31
ATOM     31  C   UNL     1      -7.064   5.957  22.468  0.00  0.00    +0.000 C 
BRANCH  31  32
ATOM     32  C   UNL     1      -5.613   6.247  22.567  0.00  0.00    +0.000 C 
BRANCH  32  33
ATOM     33  N   UNL     1      -4.820   5.003  22.532  0.00  0.00    +0.000 N 
ATOM     34  C   UNL     1      -5.297   4.154  23.604  0.00  0.00    +0.000 C 
ATOM     35  C   UNL     1      -4.934   4.295  21.267  0.00  0.00    +0.000 C 
BRANCH  33  36
ATOM     36  C   UNL     1      -3.371   5.349  22.782  0.00  0.00    +0.000 C 
BRANCH  36  37
ATOM     37  C   UNL     1      -2.730   4.582  23.991  0.00  0.00    +0.000 C 
BRANCH  37  38
ATOM     38  C   UNL     1      -2.264   5.569  25.020  0.00  0.00    +0.000 C 
BRANCH  38  39
ATOM     39  S   UNL     1      -0.723   5.093  25.580  0.00  0.00    +0.000 S 
ATOM     40  O   UNL     1      -0.403   5.863  26.767  0.00  0.00    +0.000 OA
ATOM     41  O   UNL     1       0.305   5.283  24.543  0.00  0.00    +0.000 OA
ATOM     42  O   UNL     1      -0.784   3.654  25.894  0.00  0.00    +0.000 OA
ENDBRANCH  38  39
ENDBRANCH  37  38
ENDBRANCH  36  37
ENDBRANCH  33  36
ENDBRANCH  32  33
ENDBRANCH  31  32
ENDBRANCH  30  31
ENDBRANCH  27  30
ENDBRANCH  26  29
ENDBRANCH  25  26
ENDBRANCH  24  25
ENDBRANCH   4  24
TORSDOF 12
ENDMDL
MODEL 7
REMARK VINA RESULT:      -8.1      5.460      8.681
REMARK  Name = human_CD1d_CHAPS_pred.rank_0
REMARK  12 active torsions:
REMARK  status: ('A' for Active; 'I' for Inactive)
REMARK    1  A    between atoms: N_2  and  C_14
REMARK    2  A    between atoms: S_4  and  C_23
REMARK    3  A    between atoms: C_5  and  C_8
REMARK    4  A    between atoms: C_5  and  C_24
REMARK    5  A    between atoms: N_6  and  C_18
REMARK    6  A    between atoms: N_6  and  C_21
REMARK    7  A    between atoms: C_8  and  C_10
REMARK    8  A    between atoms: C_10  and  C_12
REMARK    9  A    between atoms: C_14  and  C_16
REMARK   10  A    between atoms: C_16  and  C_18
REMARK   11  A    between atoms: C_21  and  C_22
REMARK   12  A    between atoms: C_22  and  C_23
REMARK                            x       y       z     vdW  Elec       q    Type
REMARK                         _______ _______ _______ _____ _____    ______ ____
ROOT
ATOM      1  O   UNL     1      -1.533   5.952  23.055  0.00  0.00    +0.000 OA
ATOM      2  O   UNL     1      -6.642   7.556  22.104  0.00  0.00    +0.000 OA
ATOM      3  O   UNL     1      -8.209   4.726  19.409  0.00  0.00    +0.000 OA
ATOM      4  C   UNL     1     -10.873   5.127  20.615  0.00  0.00    +0.000 C 
ATOM      5  C   UNL     1     -11.356   6.207  21.617  0.00  0.00    +0.000 C 
ATOM      6  C   UNL     1     -10.188   6.507  22.538  0.00  0.00    +0.000 C 
ATOM      7  C   UNL     1      -9.007   5.791  21.906  0.00  0.00    +0.000 C 
ATOM      8  C   UNL     1      -9.642   4.515  21.353  0.00  0.00    +0.000 C 
ATOM      9  C   UNL     1      -8.566   3.849  20.496  0.00  0.00    +0.000 C 
ATOM     10  C   UNL     1      -7.291   3.504  21.354  0.00  0.00    +0.000 C 
ATOM     11  C   UNL     1      -6.711   4.701  22.119  0.00  0.00    +0.000 C 
ATOM     12  C   UNL     1      -7.790   5.530  22.816  0.00  0.00    +0.000 C 
ATOM     13  C   UNL     1      -7.175   6.905  23.231  0.00  0.00    +0.000 C 
ATOM     14  C   UNL     1      -6.073   6.580  24.305  0.00  0.00    +0.000 C 
ATOM     15  C   UNL     1      -5.103   5.500  23.988  0.00  0.00    +0.000 C 
ATOM     16  C   UNL     1      -5.564   4.297  23.119  0.00  0.00    +0.000 C 
ATOM     17  C   UNL     1      -4.414   3.623  22.314  0.00  0.00    +0.000 C 
ATOM     18  C   UNL     1      -3.154   4.458  22.093  0.00  0.00    +0.000 C 
ATOM     19  C   UNL     1      -2.787   5.269  23.299  0.00  0.00    +0.000 C 
ATOM     20  C   UNL     1      -3.879   6.255  23.485  0.00  0.00    +0.000 C 
ATOM     21  C   UNL     1      -5.990   3.294  24.092  0.00  0.00    +0.000 C 
ATOM     22  C   UNL     1     -10.140   3.534  22.406  0.00  0.00    +0.000 C 
ENDROOT
BRANCH   4  24
ATOM     23  C   UNL     1     -11.933   3.775  18.758  0.00  0.00    +0.000 C 
ATOM     24  C   UNL     1     -12.006   4.172  20.208  0.00  0.00    +0.000 C 
BRANCH  24  25
ATOM     25  C   UNL     1     -13.372   4.894  20.488  0.00  0.00    +0.000 C 
BRANCH  25  26
ATOM     26  C   UNL     1     -14.180   4.955  19.206  0.00  0.00    +0.000 C 
BRANCH  26  29
ATOM     27  N   UNL     1     -15.033   6.936  20.392  0.00  0.00    +0.000 NA
ATOM     28  O   UNL     1     -15.456   6.718  18.189  0.00  0.00    +0.000 OA
ATOM     29  C   UNL     1     -14.975   6.271  19.216  0.00  0.00    +0.000 C 
BRANCH  27  30
ATOM     30  C   UNL     1     -15.643   8.311  20.439  0.00  0.00    +0.000 C 
BRANCH  30  31
ATOM     31  C   UNL     1     -15.992   8.739  21.875  0.00  0.00    +0.000 C 
BRANCH  31  32
ATOM     32  C   UNL     1     -15.897  10.209  22.049  0.00  0.00    +0.000 C 
BRANCH  32  33
ATOM     33  N   UNL     1     -16.806  10.676  23.113  0.00  0.00    +0.000 N 
ATOM     34  C   UNL     1     -16.574  12.094  23.292  0.00  0.00    +0.000 C 
ATOM     35  C   UNL     1     -18.208  10.452  22.797  0.00  0.00    +0.000 C 
BRANCH  33  36
ATOM     36  C   UNL     1     -16.461   9.952  24.393  0.00  0.00    +0.000 C 
BRANCH  36  37
ATOM     37  C   UNL     1     -17.709   9.534  25.247  0.00  0.00    +0.000 C 
BRANCH  37  38
ATOM     38  C   UNL     1     -17.308   8.478  26.235  0.00  0.00    +0.000 C 
BRANCH  38  39
ATOM     39  S   UNL     1     -17.985   8.864  27.754  0.00  0.00    +0.000 S 
ATOM     40  O   UNL     1     -16.958   8.718  28.770  0.00  0.00    +0.000 OA
ATOM     41  O   UNL     1     -19.142   8.005  28.058  0.00  0.00    +0.000 OA
ATOM     42  O   UNL     1     -18.462  10.256  27.694  0.00  0.00    +0.000 OA
ENDBRANCH  38  39
ENDBRANCH  37  38
ENDBRANCH  36  37
ENDBRANCH  33  36
ENDBRANCH  32  33
ENDBRANCH  31  32
ENDBRANCH  30  31
ENDBRANCH  27  30
ENDBRANCH  26  29
ENDBRANCH  25  26
ENDBRANCH  24  25
ENDBRANCH   4  24
TORSDOF 12
ENDMDL
MODEL 8
REMARK VINA RESULT:      -7.4      6.250      9.119
REMARK  Name = human_CD1d_CHAPS_pred.rank_0
REMARK  12 active torsions:
REMARK  status: ('A' for Active; 'I' for Inactive)
REMARK    1  A    between atoms: N_2  and  C_14
REMARK    2  A    between atoms: S_4  and  C_23
REMARK    3  A    between atoms: C_5  and  C_8
REMARK    4  A    between atoms: C_5  and  C_24
REMARK    5  A    between atoms: N_6  and  C_18
REMARK    6  A    between atoms: N_6  and  C_21
REMARK    7  A    between atoms: C_8  and  C_10
REMARK    8  A    between atoms: C_10  and  C_12
REMARK    9  A    between atoms: C_14  and  C_16
REMARK   10  A    between atoms: C_16  and  C_18
REMARK   11  A    between atoms: C_21  and  C_22
REMARK   12  A    between atoms: C_22  and  C_23
REMARK                            x       y       z     vdW  Elec       q    Type
REMARK                         _______ _______ _______ _____ _____    ______ ____
ROOT
ATOM      1  O   UNL     1       0.736   7.149  27.175  0.00  0.00    +0.000 OA
ATOM      2  O   UNL     1      -3.842   4.325  26.372  0.00  0.00    +0.000 OA
ATOM      3  O   UNL     1      -6.129   6.654  23.713  0.00  0.00    +0.000 OA
ATOM      4  C   UNL     1      -7.263   4.170  22.591  0.00  0.00    +0.000 C 
ATOM      5  C   UNL     1      -7.164   2.711  23.109  0.00  0.00    +0.000 C 
ATOM      6  C   UNL     1      -5.790   2.559  23.735  0.00  0.00    +0.000 C 
ATOM      7  C   UNL     1      -5.232   3.971  23.785  0.00  0.00    +0.000 C 
ATOM      8  C   UNL     1      -5.764   4.590  22.493  0.00  0.00    +0.000 C 
ATOM      9  C   UNL     1      -5.444   6.082  22.580  0.00  0.00    +0.000 C 
ATOM     10  C   UNL     1      -3.892   6.322  22.710  0.00  0.00    +0.000 C 
ATOM     11  C   UNL     1      -3.237   5.558  23.868  0.00  0.00    +0.000 C 
ATOM     12  C   UNL     1      -3.705   4.105  23.951  0.00  0.00    +0.000 C 
ATOM     13  C   UNL     1      -3.302   3.527  25.346  0.00  0.00    +0.000 C 
ATOM     14  C   UNL     1      -1.730   3.512  25.370  0.00  0.00    +0.000 C 
ATOM     15  C   UNL     1      -1.025   4.749  24.948  0.00  0.00    +0.000 C 
ATOM     16  C   UNL     1      -1.666   5.655  23.860  0.00  0.00    +0.000 C 
ATOM     17  C   UNL     1      -1.256   7.153  23.966  0.00  0.00    +0.000 C 
ATOM     18  C   UNL     1      -0.714   7.620  25.315  0.00  0.00    +0.000 C 
ATOM     19  C   UNL     1       0.179   6.600  25.956  0.00  0.00    +0.000 C 
ATOM     20  C   UNL     1      -0.681   5.432  26.265  0.00  0.00    +0.000 C 
ATOM     21  C   UNL     1      -1.077   5.184  22.609  0.00  0.00    +0.000 C 
ATOM     22  C   UNL     1      -5.176   4.013  21.212  0.00  0.00    +0.000 C 
ENDROOT
BRANCH   4  24
ATOM     23  C   UNL     1      -7.324   3.983  20.069  0.00  0.00    +0.000 C 
ATOM     24  C   UNL     1      -8.116   4.270  21.317  0.00  0.00    +0.000 C 
BRANCH  24  25
ATOM     25  C   UNL     1      -8.706   5.724  21.242  0.00  0.00    +0.000 C 
BRANCH  25  26
ATOM     26  C   UNL     1     -10.209   5.666  21.435  0.00  0.00    +0.000 C 
BRANCH  26  29
ATOM     27  N   UNL     1     -11.811   7.190  22.516  0.00  0.00    +0.000 NA
ATOM     28  O   UNL     1      -9.807   6.848  23.487  0.00  0.00    +0.000 OA
ATOM     29  C   UNL     1     -10.574   6.646  22.562  0.00  0.00    +0.000 C 
BRANCH  27  30
ATOM     30  C   UNL     1     -12.302   8.019  23.673  0.00  0.00    +0.000 C 
BRANCH  30  31
ATOM     31  C   UNL     1     -13.046   9.282  23.204  0.00  0.00    +0.000 C 
BRANCH  31  32
ATOM     32  C   UNL     1     -13.339  10.198  24.333  0.00  0.00    +0.000 C 
BRANCH  32  33
ATOM     33  N   UNL     1     -14.792  10.401  24.486  0.00  0.00    +0.000 N 
ATOM     34  C   UNL     1     -15.418  10.027  23.235  0.00  0.00    +0.000 C 
ATOM     35  C   UNL     1     -15.363   9.613  25.567  0.00  0.00    +0.000 C 
BRANCH  33  36
ATOM     36  C   UNL     1     -15.048  11.866  24.749  0.00  0.00    +0.000 C 
BRANCH  36  37
ATOM     37  C   UNL     1     -14.016  12.529  25.728  0.00  0.00    +0.000 C 
BRANCH  37  38
ATOM     38  C   UNL     1     -14.112  14.023  25.620  0.00  0.00    +0.000 C 
BRANCH  38  39
ATOM     39  S   UNL     1     -12.919  14.571  24.527  0.00  0.00    +0.000 S 
ATOM     40  O   UNL     1     -12.328  15.786  25.058  0.00  0.00    +0.000 OA
ATOM     41  O   UNL     1     -13.488  14.810  23.190  0.00  0.00    +0.000 OA
ATOM     42  O   UNL     1     -11.904  13.511  24.401  0.00  0.00    +0.000 OA
ENDBRANCH  38  39
ENDBRANCH  37  38
ENDBRANCH  36  37
ENDBRANCH  33  36
ENDBRANCH  32  33
ENDBRANCH  31  32
ENDBRANCH  30  31
ENDBRANCH  27  30
ENDBRANCH  26  29
ENDBRANCH  25  26
ENDBRANCH  24  25
ENDBRANCH   4  24
TORSDOF 12
ENDMDL
MODEL 9
REMARK VINA RESULT:      -7.4      5.549      8.392
REMARK  Name = human_CD1d_CHAPS_pred.rank_0
REMARK  12 active torsions:
REMARK  status: ('A' for Active; 'I' for Inactive)
REMARK    1  A    between atoms: N_2  and  C_14
REMARK    2  A    between atoms: S_4  and  C_23
REMARK    3  A    between atoms: C_5  and  C_8
REMARK    4  A    between atoms: C_5  and  C_24
REMARK    5  A    between atoms: N_6  and  C_18
REMARK    6  A    between atoms: N_6  and  C_21
REMARK    7  A    between atoms: C_8  and  C_10
REMARK    8  A    between atoms: C_10  and  C_12
REMARK    9  A    between atoms: C_14  and  C_16
REMARK   10  A    between atoms: C_16  and  C_18
REMARK   11  A    between atoms: C_21  and  C_22
REMARK   12  A    between atoms: C_22  and  C_23
REMARK                            x       y       z     vdW  Elec       q    Type
REMARK                         _______ _______ _______ _____ _____    ______ ____
ROOT
ATOM      1  O   UNL     1      -2.340   5.360  22.570  0.00  0.00    +0.000 OA
ATOM      2  O   UNL     1      -7.359   7.356  21.933  0.00  0.00    +0.000 OA
ATOM      3  O   UNL     1      -9.241   4.770  19.195  0.00  0.00    +0.000 OA
ATOM      4  C   UNL     1     -11.814   5.297  20.542  0.00  0.00    +0.000 C 
ATOM      5  C   UNL     1     -12.174   6.361  21.613  0.00  0.00    +0.000 C 
ATOM      6  C   UNL     1     -10.948   6.536  22.489  0.00  0.00    +0.000 C 
ATOM      7  C   UNL     1      -9.851   5.770  21.771  0.00  0.00    +0.000 C 
ATOM      8  C   UNL     1     -10.599   4.568  21.194  0.00  0.00    +0.000 C 
ATOM      9  C   UNL     1      -9.612   3.870  20.259  0.00  0.00    +0.000 C 
ATOM     10  C   UNL     1      -8.328   3.398  21.039  0.00  0.00    +0.000 C 
ATOM     11  C   UNL     1      -7.631   4.515  21.828  0.00  0.00    +0.000 C 
ATOM     12  C   UNL     1      -8.616   5.383  22.610  0.00  0.00    +0.000 C 
ATOM     13  C   UNL     1      -7.886   6.692  23.055  0.00  0.00    +0.000 C 
ATOM     14  C   UNL     1      -6.764   6.241  24.060  0.00  0.00    +0.000 C 
ATOM     15  C   UNL     1      -5.888   5.113  23.650  0.00  0.00    +0.000 C 
ATOM     16  C   UNL     1      -6.472   3.987  22.753  0.00  0.00    +0.000 C 
ATOM     17  C   UNL     1      -5.409   3.273  21.866  0.00  0.00    +0.000 C 
ATOM     18  C   UNL     1      -4.105   4.028  21.622  0.00  0.00    +0.000 C 
ATOM     19  C   UNL     1      -3.627   4.755  22.843  0.00  0.00    +0.000 C 
ATOM     20  C   UNL     1      -4.638   5.804  23.123  0.00  0.00    +0.000 C 
ATOM     21  C   UNL     1      -6.925   2.971  23.700  0.00  0.00    +0.000 C 
ATOM     22  C   UNL     1     -11.118   3.576  22.227  0.00  0.00    +0.000 C 
ENDROOT
BRANCH   4  24
ATOM     23  C   UNL     1     -13.075   4.150  18.673  0.00  0.00    +0.000 C 
ATOM     24  C   UNL     1     -13.029   4.443  20.149  0.00  0.00    +0.000 C 
BRANCH  24  25
ATOM     25  C   UNL     1     -14.326   5.222  20.570  0.00  0.00    +0.000 C 
BRANCH  25  26
ATOM     26  C   UNL     1     -15.085   5.644  19.326  0.00  0.00    +0.000 C 
BRANCH  26  29
ATOM     27  N   UNL     1     -15.995   7.322  20.879  0.00  0.00    +0.000 NA
ATOM     28  O   UNL     1     -15.807   7.846  18.695  0.00  0.00    +0.000 OA
ATOM     29  C   UNL     1     -15.690   7.031  19.594  0.00  0.00    +0.000 C 
BRANCH  27  30
ATOM     30  C   UNL     1     -16.427   8.717  21.243  0.00  0.00    +0.000 C 
BRANCH  30  31
ATOM     31  C   UNL     1     -16.432   8.942  22.765  0.00  0.00    +0.000 C 
BRANCH  31  32
ATOM     32  C   UNL     1     -15.617  10.120  23.149  0.00  0.00    +0.000 C 
BRANCH  32  33
ATOM     33  N   UNL     1     -15.467  10.205  24.615  0.00  0.00    +0.000 N 
ATOM     34  C   UNL     1     -16.581   9.495  25.208  0.00  0.00    +0.000 C 
ATOM     35  C   UNL     1     -14.218   9.631  25.090  0.00  0.00    +0.000 C 
BRANCH  33  36
ATOM     36  C   UNL     1     -15.534  11.659  25.021  0.00  0.00    +0.000 C 
BRANCH  36  37
ATOM     37  C   UNL     1     -15.711  12.651  23.819  0.00  0.00    +0.000 C 
BRANCH  37  38
ATOM     38  C   UNL     1     -16.610  13.780  24.229  0.00  0.00    +0.000 C 
BRANCH  38  39
ATOM     39  S   UNL     1     -16.028  15.226  23.532  0.00  0.00    +0.000 S 
ATOM     40  O   UNL     1     -15.451  14.917  22.236  0.00  0.00    +0.000 OA
ATOM     41  O   UNL     1     -15.033  15.877  24.401  0.00  0.00    +0.000 OA
ATOM     42  O   UNL     1     -17.169  16.146  23.386  0.00  0.00    +0.000 OA
ENDBRANCH  38  39
ENDBRANCH  37  38
ENDBRANCH  36  37
ENDBRANCH  33  36
ENDBRANCH  32  33
ENDBRANCH  31  32
ENDBRANCH  30  31
ENDBRANCH  27  30
ENDBRANCH  26  29
ENDBRANCH  25  26
ENDBRANCH  24  25
ENDBRANCH   4  24
TORSDOF 12
ENDMDL
