human_CD1d_NP40_pred.rank_0
  PyMOL3.1          3D                             0

 43 43  0  0  0  0  0  0  0  0999 V2000
   -3.9240  -10.9030   18.2480 C   0  0  0  0  0  0  0  0  0  0  0  0
    8.8730   -6.2530   20.9510 O   0  0  0  0  0  0  0  0  0  0  0  0
   -3.2670  -10.1860   19.4180 C   0  0  0  0  0  0  0  0  0  0  0  0
   11.1670   -3.6500   20.1410 O   0  0  0  0  0  0  0  0  0  0  0  0
   -2.5160   -8.9480   18.9250 C   0  0  0  0  0  0  0  0  0  0  0  0
    9.8410   -2.1580   17.0470 O   0  0  0  0  0  0  0  0  0  0  0  0
   -1.7620   -8.3380   20.0870 C   0  0  0  0  0  0  0  0  0  0  0  0
    8.6590    0.5230   14.8280 O   0  0  0  0  0  0  0  0  0  0  0  0
   -1.0870   -7.0320   19.6810 C   0  0  0  0  0  0  0  0  0  0  0  0
   11.2240    2.9350   13.7360 O   0  0  0  0  0  0  0  0  0  0  0  0
    0.4530   -7.1760   19.7650 C   0  0  0  0  0  0  0  0  0  0  0  0
   13.0440    3.1770   10.5180 O   0  0  0  0  0  0  0  0  0  0  0  0
    1.1230   -5.8130   19.6520 C   0  0  0  0  0  0  0  0  0  0  0  0
   13.2940    0.3830    8.2270 O   0  0  0  0  0  0  0  0  0  0  0  0
    2.6460   -5.8780   19.5630 C   0  0  0  0  0  0  0  0  0  0  0  0
   10.4570   -2.0000    7.8380 O   0  0  0  0  0  0  0  0  0  0  0  0
    3.2150   -6.6500   20.7460 C   0  0  0  0  0  0  0  0  0  0  0  0
    8.1130   -3.2200   10.3490 O   0  0  0  0  0  0  0  0  0  0  0  0
    4.7100   -6.5140   20.7880 C   0  0  0  0  0  0  0  0  0  0  0  0
    6.5040   -1.6410   13.2320 O   0  0  0  0  0  0  0  0  0  0  0  0
    5.4830   -7.6300   20.9680 C   0  0  0  0  0  0  0  0  0  0  0  0
    6.8560   -7.5260   21.0120 C   0  0  0  0  0  0  0  0  0  0  0  0
    7.4740   -6.2840   20.8970 C   0  0  0  0  0  0  0  0  0  0  0  0
    9.3950   -4.9430   21.2230 C   0  0  0  0  0  0  0  0  0  0  0  0
   10.8900   -4.8880   20.8440 C   0  0  0  0  0  0  0  0  0  0  0  0
   10.7080   -3.6310   18.7660 C   0  0  0  0  0  0  0  0  0  0  0  0
   10.1120   -2.2680   18.4710 C   0  0  0  0  0  0  0  0  0  0  0  0
    9.1350   -0.9410   16.7260 C   0  0  0  0  0  0  0  0  0  0  0  0
    8.9010   -0.8560   15.2080 C   0  0  0  0  0  0  0  0  0  0  0  0
    9.8760    1.2960   14.8860 C   0  0  0  0  0  0  0  0  0  0  0  0
    9.9720    2.1720   13.6680 C   0  0  0  0  0  0  0  0  0  0  0  0
   11.6440    3.5050   12.4990 C   0  0  0  0  0  0  0  0  0  0  0  0
   12.7190    2.6290   11.8400 C   0  0  0  0  0  0  0  0  0  0  0  0
   13.8600    2.2470    9.7280 C   0  0  0  0  0  0  0  0  0  0  0  0
   13.0870    1.8170    8.4670 C   0  0  0  0  0  0  0  0  0  0  0  0
   12.1550   -0.2310    7.5680 C   0  0  0  0  0  0  0  0  0  0  0  0
   11.7530   -1.5430    8.3250 C   0  0  0  0  0  0  0  0  0  0  0  0
    9.8970   -3.0310    8.6630 C   0  0  0  0  0  0  0  0  0  0  0  0
    8.4490   -2.6970    9.0290 C   0  0  0  0  0  0  0  0  0  0  0  0
    7.2680   -2.3170   11.0570 C   0  0  0  0  0  0  0  0  0  0  0  0
    7.2000   -2.6710   12.5370 C   0  0  0  0  0  0  0  0  0  0  0  0
    6.6930   -5.2090   20.6840 C   0  0  0  0  0  0  0  0  0  0  0  0
    5.3180   -5.3090   20.6330 C   0  0  0  0  0  0  0  0  0  0  0  0
  1  3  1  0  0  0  0
  2 24  1  0  0  0  0
  3  5  1  0  0  0  0
  4 26  1  0  0  0  0
  5  7  1  0  0  0  0
  6 28  1  0  0  0  0
  7  9  1  0  0  0  0
  8 30  1  0  0  0  0
  9 11  1  0  0  0  0
 10 32  1  0  0  0  0
 11 13  1  0  0  0  0
 12 34  1  0  0  0  0
 13 15  1  0  0  0  0
 14 36  1  0  0  0  0
 15 17  1  0  0  0  0
 16 38  1  0  0  0  0
 17 19  1  0  0  0  0
 18 40  1  0  0  0  0
 19 21  4  0  0  0  0
 19 43  4  0  0  0  0
 21 22  4  0  0  0  0
 22 23  4  0  0  0  0
  2 23  1  0  0  0  0
 23 42  4  0  0  0  0
 24 25  1  0  0  0  0
  4 25  1  0  0  0  0
 26 27  1  0  0  0  0
  6 27  1  0  0  0  0
 28 29  1  0  0  0  0
  8 29  1  0  0  0  0
 30 31  1  0  0  0  0
 10 31  1  0  0  0  0
 32 33  1  0  0  0  0
 12 33  1  0  0  0  0
 34 35  1  0  0  0  0
 14 35  1  0  0  0  0
 36 37  1  0  0  0  0
 16 37  1  0  0  0  0
 38 39  1  0  0  0  0
 18 39  1  0  0  0  0
 40 41  1  0  0  0  0
 20 41  1  0  0  0  0
 42 43  4  0  0  0  0
M  END
$$$$
