human_CD1d_CTAB_pred.rank_0
  PyMOL3.1          3D                             0

 20 19  0  0  0  0  0  0  0  0999 V2000
  -11.3590  -18.8890    9.7210 C   0  0  0  0  0  0  0  0  0  0  0  0
  -23.7190  -18.1260    0.6170 N   0  0  0  0  0  0  0  0  0  0  0  0
  -12.0590  -19.4970    8.5480 C   0  0  0  0  0  0  0  0  0  0  0  0
  -11.4350  -19.0030    7.2520 C   0  0  0  0  0  0  0  0  0  0  0  0
  -12.3920  -19.2910    6.1180 C   0  0  0  0  0  0  0  0  0  0  0  0
  -12.0810  -18.4020    4.9150 C   0  0  0  0  0  0  0  0  0  0  0  0
  -13.1350  -18.6250    3.8430 C   0  0  0  0  0  0  0  0  0  0  0  0
  -12.9600  -17.6260    2.6780 C   0  0  0  0  0  0  0  0  0  0  0  0
  -14.0210  -17.8820    1.6290 C   0  0  0  0  0  0  0  0  0  0  0  0
  -15.3550  -17.3040    2.0630 C   0  0  0  0  0  0  0  0  0  0  0  0
  -16.2010  -16.9460    0.8770 C   0  0  0  0  0  0  0  0  0  0  0  0
  -17.5540  -16.4290    1.3190 C   0  0  0  0  0  0  0  0  0  0  0  0
  -18.4850  -16.3500    0.1290 C   0  0  0  0  0  0  0  0  0  0  0  0
  -19.8670  -15.9430    0.5940 C   0  0  0  0  0  0  0  0  0  0  0  0
  -20.8280  -15.9440   -0.5840 C   0  0  0  0  0  0  0  0  0  0  0  0
  -21.7550  -17.1720   -0.4980 C   0  0  0  0  0  0  0  0  0  0  0  0
  -22.8660  -16.9350    0.5150 C   0  0  0  0  0  0  0  0  0  0  0  0
  -24.6550  -17.8930    1.7010 C   0  0  0  0  0  0  0  0  0  0  0  0
  -22.9030  -19.2680    0.9520 C   0  0  0  0  0  0  0  0  0  0  0  0
  -24.4710  -18.3670   -0.6140 C   0  0  0  0  0  0  0  0  0  0  0  0
  1  3  1  0  0  0  0
  2 18  1  0  0  0  0
  2 19  1  0  0  0  0
  2 20  1  0  0  0  0
  3  4  1  0  0  0  0
  4  5  1  0  0  0  0
  5  6  1  0  0  0  0
  6  7  1  0  0  0  0
  7  8  1  0  0  0  0
  8  9  1  0  0  0  0
  9 10  1  0  0  0  0
 10 11  1  0  0  0  0
 11 12  1  0  0  0  0
 12 13  1  0  0  0  0
 13 14  1  0  0  0  0
 14 15  1  0  0  0  0
 15 16  1  0  0  0  0
 16 17  1  0  0  0  0
  2 17  1  0  0  0  0
M  END
$$$$
