REMARK  Name = human_CD1d_CTAB_pred.rank_0
REMARK  15 active torsions:
REMARK  status: ('A' for Active; 'I' for Inactive)
REMARK    1  A    between atoms: N_2  and  C_17
REMARK    2  A    between atoms: C_3  and  C_4
REMARK    3  A    between atoms: C_4  and  C_5
REMARK    4  A    between atoms: C_5  and  C_6
REMARK    5  A    between atoms: C_6  and  C_7
REMARK    6  A    between atoms: C_7  and  C_8
REMARK    7  A    between atoms: C_8  and  C_9
REMARK    8  A    between atoms: C_9  and  C_10
REMARK    9  A    between atoms: C_10  and  C_11
REMARK   10  A    between atoms: C_11  and  C_12
REMARK   11  A    between atoms: C_12  and  C_13
REMARK   12  A    between atoms: C_13  and  C_14
REMARK   13  A    between atoms: C_14  and  C_15
REMARK   14  A    between atoms: C_15  and  C_16
REMARK   15  A    between atoms: C_16  and  C_17
REMARK                            x       y       z     vdW  Elec       q    Type
REMARK                         _______ _______ _______ _____ _____    ______ ____
ROOT
ATOM      1  C   UNL     1     -16.201 -16.946   0.877  0.00  0.00    +0.000 C 
ENDROOT
BRANCH   1   2
ATOM      2  C   UNL     1     -15.355 -17.304   2.063  0.00  0.00    +0.000 C 
BRANCH   2   3
ATOM      3  C   UNL     1     -14.021 -17.882   1.629  0.00  0.00    +0.000 C 
BRANCH   3   4
ATOM      4  C   UNL     1     -12.960 -17.626   2.678  0.00  0.00    +0.000 C 
BRANCH   4   5
ATOM      5  C   UNL     1     -13.135 -18.625   3.843  0.00  0.00    +0.000 C 
BRANCH   5   6
ATOM      6  C   UNL     1     -12.081 -18.402   4.915  0.00  0.00    +0.000 C 
BRANCH   6   7
ATOM      7  C   UNL     1     -12.392 -19.291   6.118  0.00  0.00    +0.000 C 
BRANCH   7   8
ATOM      8  C   UNL     1     -11.435 -19.003   7.252  0.00  0.00    +0.000 C 
BRANCH   8  10
ATOM      9  C   UNL     1     -11.359 -18.889   9.721  0.00  0.00    +0.000 C 
ATOM     10  C   UNL     1     -12.059 -19.497   8.548  0.00  0.00    +0.000 C 
ENDBRANCH   8  10
ENDBRANCH   7   8
ENDBRANCH   6   7
ENDBRANCH   5   6
ENDBRANCH   4   5
ENDBRANCH   3   4
ENDBRANCH   2   3
ENDBRANCH   1   2
BRANCH   1  11
ATOM     11  C   UNL     1     -17.554 -16.429   1.319  0.00  0.00    +0.000 C 
BRANCH  11  12
ATOM     12  C   UNL     1     -18.485 -16.350   0.129  0.00  0.00    +0.000 C 
BRANCH  12  13
ATOM     13  C   UNL     1     -19.867 -15.943   0.594  0.00  0.00    +0.000 C 
BRANCH  13  14
ATOM     14  C   UNL     1     -20.828 -15.944  -0.584  0.00  0.00    +0.000 C 
BRANCH  14  15
ATOM     15  C   UNL     1     -21.755 -17.172  -0.498  0.00  0.00    +0.000 C 
BRANCH  15  16
ATOM     16  C   UNL     1     -22.866 -16.935   0.515  0.00  0.00    +0.000 C 
BRANCH  16  17
ATOM     17  N   UNL     1     -23.719 -18.126   0.617  0.00  0.00    +0.000 N 
ATOM     18  C   UNL     1     -24.655 -17.893   1.701  0.00  0.00    +0.000 C 
ATOM     19  C   UNL     1     -22.903 -19.268   0.952  0.00  0.00    +0.000 C 
ATOM     20  C   UNL     1     -24.471 -18.367  -0.614  0.00  0.00    +0.000 C 
ENDBRANCH  16  17
ENDBRANCH  15  16
ENDBRANCH  14  15
ENDBRANCH  13  14
ENDBRANCH  12  13
ENDBRANCH  11  12
ENDBRANCH   1  11
TORSDOF 15
