human_CD1d_Tyloxapol_pred.rank_0
  PyMOL3.1          3D                             0

235239  0  0  0  0  0  0  0  0999 V2000
   32.0140    3.8880   -5.1730 C   0  0  0  0  0  0  0  0  0  0  0  0
   32.6170    3.6940   -3.9130 O   0  0  0  0  0  0  0  0  0  0  0  0
   32.3060    2.6890   -6.0490 C   0  0  0  0  0  0  0  0  0  0  0  0
   31.9020    2.9430   -7.3750 O   0  0  0  0  0  0  0  0  0  0  0  0
   32.3850    1.9960   -8.2960 C   0  0  0  0  0  0  0  0  0  0  0  0
   33.6860    2.7400  -10.1520 O   0  0  0  0  0  0  0  0  0  0  0  0
   32.3770    2.5990   -9.6680 C   0  0  0  0  0  0  0  0  0  0  0  0
   34.5090    3.1460  -13.6240 O   0  0  0  0  0  0  0  0  0  0  0  0
   33.8100    2.3620  -11.4960 C   0  0  0  0  0  0  0  0  0  0  0  0
   33.1020    5.2360  -14.8420 O   0  0  0  0  0  0  0  0  0  0  0  0
   34.8110    3.2070  -12.2420 C   0  0  0  0  0  0  0  0  0  0  0  0
   32.1040    7.4910  -13.7380 O   0  0  0  0  0  0  0  0  0  0  0  0
   35.1680    4.1520  -14.3880 C   0  0  0  0  0  0  0  0  0  0  0  0
   31.8440    7.3140  -10.7020 O   0  0  0  0  0  0  0  0  0  0  0  0
   34.2450    4.6990  -15.4820 C   0  0  0  0  0  0  0  0  0  0  0  0
   30.2120    6.5490   -7.5730 O   0  0  0  0  0  0  0  0  0  0  0  0
   32.3070    6.0500  -15.6660 C   0  0  0  0  0  0  0  0  0  0  0  0
   24.3160    8.6890   -5.7510 O   0  0  0  0  0  0  0  0  0  0  0  0
   31.3730    6.9380  -14.8470 C   0  0  0  0  0  0  0  0  0  0  0  0
   21.8150    7.2520   -4.7670 O   0  0  0  0  0  0  0  0  0  0  0  0
   31.3930    8.3000  -12.8780 C   0  0  0  0  0  0  0  0  0  0  0  0
   22.5500    7.5570    0.2830 O   0  0  0  0  0  0  0  0  0  0  0  0
   32.1760    8.5050  -11.5380 C   0  0  0  0  0  0  0  0  0  0  0  0
   26.0650    8.0240    1.2880 O   0  0  0  0  0  0  0  0  0  0  0  0
   30.7740    6.9770   -9.9390 C   0  0  0  0  0  0  0  0  0  0  0  0
   28.8630    6.8580    1.3200 O   0  0  0  0  0  0  0  0  0  0  0  0
   31.2330    6.4320   -8.6030 C   0  0  0  0  0  0  0  0  0  0  0  0
   31.4860    5.2040    1.0870 O   0  0  0  0  0  0  0  0  0  0  0  0
   30.1490    7.7970   -7.0570 C   0  0  0  0  0  0  0  0  0  0  0  0
   33.2480    5.3030   -1.2150 O   0  0  0  0  0  0  0  0  0  0  0  0
   29.1840    7.8830   -5.9210 C   0  0  0  0  0  0  0  0  0  0  0  0
   34.1740    6.6630   -3.4800 O   0  0  0  0  0  0  0  0  0  0  0  0
   27.8270    7.3470   -6.3200 C   0  0  0  0  0  0  0  0  0  0  0  0
   35.3680    6.4720   -6.1330 O   0  0  0  0  0  0  0  0  0  0  0  0
   26.7010    8.2400   -5.7980 C   0  0  0  0  0  0  0  0  0  0  0  0
   37.3620    3.8920   -7.0660 O   0  0  0  0  0  0  0  0  0  0  0  0
   25.3440    7.8610   -6.3360 C   0  0  0  0  0  0  0  0  0  0  0  0
   40.1450    5.1180   -7.8870 O   0  0  0  0  0  0  0  0  0  0  0  0
   23.0410    8.5470   -6.3890 C   0  0  0  0  0  0  0  0  0  0  0  0
   40.0110    7.7930   -7.5710 O   0  0  0  0  0  0  0  0  0  0  0  0
   22.4040    7.2310   -6.0470 C   0  0  0  0  0  0  0  0  0  0  0  0
   38.2460   10.1720   -9.6120 O   0  0  0  0  0  0  0  0  0  0  0  0
   22.3740    6.3120   -3.8730 C   0  0  0  0  0  0  0  0  0  0  0  0
   23.0920   10.9830    1.6140 O   0  0  0  0  0  0  0  0  0  0  0  0
   22.9370    6.9830   -2.6340 C   0  0  0  0  0  0  0  0  0  0  0  0
   24.8760   11.4210   -0.4640 O   0  0  0  0  0  0  0  0  0  0  0  0
   22.0000    8.1940   -2.1130 C   0  0  0  0  0  0  0  0  0  0  0  0
   26.6520   10.7650   -2.4880 O   0  0  0  0  0  0  0  0  0  0  0  0
   22.2710    8.5520   -0.6210 C   0  0  0  0  0  0  0  0  0  0  0  0
   29.0860   11.2000   -3.6800 O   0  0  0  0  0  0  0  0  0  0  0  0
   23.7000    7.6720    1.1280 C   0  0  0  0  0  0  0  0  0  0  0  0
   30.5180   11.8150   -6.1120 O   0  0  0  0  0  0  0  0  0  0  0  0
   24.9560    8.2110    0.4620 C   0  0  0  0  0  0  0  0  0  0  0  0
   32.7190   11.9510   -9.0510 O   0  0  0  0  0  0  0  0  0  0  0  0
   27.2560    8.6120    0.8380 C   0  0  0  0  0  0  0  0  0  0  0  0
   35.6460   12.6710   -7.0160 O   0  0  0  0  0  0  0  0  0  0  0  0
   28.4760    8.2100    1.6720 C   0  0  0  0  0  0  0  0  0  0  0  0
   38.1330   12.8500   -4.6760 O   0  0  0  0  0  0  0  0  0  0  0  0
   29.7400    6.3180    2.2860 C   0  0  0  0  0  0  0  0  0  0  0  0
   40.7970   11.5720   -3.6970 O   0  0  0  0  0  0  0  0  0  0  0  0
   30.3160    4.9910    1.8140 C   0  0  0  0  0  0  0  0  0  0  0  0
   43.5080    9.4160   -4.7990 O   0  0  0  0  0  0  0  0  0  0  0  0
   31.9110    4.0720    0.3540 C   0  0  0  0  0  0  0  0  0  0  0  0
   46.2280    6.9670   -4.6230 O   0  0  0  0  0  0  0  0  0  0  0  0
   33.3410    4.2780   -0.2400 C   0  0  0  0  0  0  0  0  0  0  0  0
   20.7560   -0.2280   -9.3220 O   0  0  0  0  0  0  0  0  0  0  0  0
   34.4580    6.1220   -1.1980 C   0  0  0  0  0  0  0  0  0  0  0  0
   21.8600   -0.8790  -11.9590 O   0  0  0  0  0  0  0  0  0  0  0  0
   34.3270    7.2440   -2.2260 C   0  0  0  0  0  0  0  0  0  0  0  0
   23.9070    0.0200  -14.7130 O   0  0  0  0  0  0  0  0  0  0  0  0
   34.0260    7.6280   -4.5090 C   0  0  0  0  0  0  0  0  0  0  0  0
   25.8700    2.1990  -14.8900 O   0  0  0  0  0  0  0  0  0  0  0  0
   34.0430    6.8700   -5.8300 C   0  0  0  0  0  0  0  0  0  0  0  0
   28.0000    4.5100  -15.6960 O   0  0  0  0  0  0  0  0  0  0  0  0
   35.4250    5.3210   -7.0170 C   0  0  0  0  0  0  0  0  0  0  0  0
   27.3310    2.9990  -18.8570 O   0  0  0  0  0  0  0  0  0  0  0  0
   36.8570    5.1200   -7.5130 C   0  0  0  0  0  0  0  0  0  0  0  0
   24.5580    2.3440  -19.6440 O   0  0  0  0  0  0  0  0  0  0  0  0
   38.5150    3.4370   -7.8570 C   0  0  0  0  0  0  0  0  0  0  0  0
   22.4630   -0.2130  -18.8470 O   0  0  0  0  0  0  0  0  0  0  0  0
   39.8640    3.8900   -7.2980 C   0  0  0  0  0  0  0  0  0  0  0  0
   20.3490   -2.3650  -18.3210 O   0  0  0  0  0  0  0  0  0  0  0  0
   41.2690    5.7800   -7.2810 C   0  0  0  0  0  0  0  0  0  0  0  0
   19.0940   -4.9230  -19.7480 O   0  0  0  0  0  0  0  0  0  0  0  0
   41.3670    7.2100   -7.7630 C   0  0  0  0  0  0  0  0  0  0  0  0
   20.4640   -8.2450  -19.9070 O   0  0  0  0  0  0  0  0  0  0  0  0
   39.8740    8.9920   -8.3620 C   0  0  0  0  0  0  0  0  0  0  0  0
   21.8760    2.9860   -6.7270 O   0  0  0  0  0  0  0  0  0  0  0  0
   38.4100    9.1240   -8.7160 C   0  0  0  0  0  0  0  0  0  0  0  0
   24.5980    3.4230   -7.8440 O   0  0  0  0  0  0  0  0  0  0  0  0
   21.4000    9.7310    0.0010 C   0  0  0  0  0  0  0  0  0  0  0  0
   27.1390    1.9280   -9.1230 O   0  0  0  0  0  0  0  0  0  0  0  0
   20.9390   10.6320    1.0610 C   0  0  0  0  0  0  0  0  0  0  0  0
   28.5800    0.0840  -10.8870 O   0  0  0  0  0  0  0  0  0  0  0  0
   19.5220   11.1050    1.2840 C   0  0  0  0  0  0  0  0  0  0  0  0
   30.8510   -1.1120  -12.4160 O   0  0  0  0  0  0  0  0  0  0  0  0
   19.1720   11.9560    2.4010 C   0  0  0  0  0  0  0  0  0  0  0  0
   34.0370   -1.7670  -12.7870 O   0  0  0  0  0  0  0  0  0  0  0  0
   17.7470   12.4900    2.5160 C   0  0  0  0  0  0  0  0  0  0  0  0
   34.3690   -4.3160  -10.2550 O   0  0  0  0  0  0  0  0  0  0  0  0
   17.5020   13.1990    1.1530 C   0  0  0  0  0  0  0  0  0  0  0  0
   31.6490   -5.1450   -8.0250 O   0  0  0  0  0  0  0  0  0  0  0  0
   16.8100   11.3730    2.5350 C   0  0  0  0  0  0  0  0  0  0  0  0
   29.4120   -3.3570   -6.7800 O   0  0  0  0  0  0  0  0  0  0  0  0
   17.3470   13.4780    3.6360 C   0  0  0  0  0  0  0  0  0  0  0  0
   31.0190   -0.6730   -4.9410 O   0  0  0  0  0  0  0  0  0  0  0  0
   17.3190   12.8570    5.1040 C   0  0  0  0  0  0  0  0  0  0  0  0
   31.5970    0.4590   -1.5900 O   0  0  0  0  0  0  0  0  0  0  0  0
   16.2200   11.8210    5.2360 C   0  0  0  0  0  0  0  0  0  0  0  0
   16.9570   13.8960    6.1040 C   0  0  0  0  0  0  0  0  0  0  0  0
   18.6580   12.2820    5.4720 C   0  0  0  0  0  0  0  0  0  0  0  0
   18.3210   14.6110    3.5660 C   0  0  0  0  0  0  0  0  0  0  0  0
   15.9200   13.9720    3.3790 C   0  0  0  0  0  0  0  0  0  0  0  0
   20.2310   12.2680    3.3230 C   0  0  0  0  0  0  0  0  0  0  0  0
   21.5640   11.9300    3.1220 C   0  0  0  0  0  0  0  0  0  0  0  0
   21.7890   11.1790    2.0080 C   0  0  0  0  0  0  0  0  0  0  0  0
   24.0230   12.0910    1.6560 C   0  0  0  0  0  0  0  0  0  0  0  0
   24.3140   12.4860    0.2200 C   0  0  0  0  0  0  0  0  0  0  0  0
   24.8100   11.5630   -1.8740 C   0  0  0  0  0  0  0  0  0  0  0  0
   25.5510   10.4480   -2.5260 C   0  0  0  0  0  0  0  0  0  0  0  0
   27.5270    9.7170   -2.7180 C   0  0  0  0  0  0  0  0  0  0  0  0
   29.0250   10.1670   -2.8080 C   0  0  0  0  0  0  0  0  0  0  0  0
   30.3960   11.8050   -3.7360 C   0  0  0  0  0  0  0  0  0  0  0  0
   30.4970   12.6440   -4.9710 C   0  0  0  0  0  0  0  0  0  0  0  0
   31.0900   12.4440   -7.2560 C   0  0  0  0  0  0  0  0  0  0  0  0
   31.7400   11.3730   -8.1720 C   0  0  0  0  0  0  0  0  0  0  0  0
   33.7720   12.7450   -8.4850 C   0  0  0  0  0  0  0  0  0  0  0  0
   34.9280   11.9060   -8.0020 C   0  0  0  0  0  0  0  0  0  0  0  0
   36.8210   12.0580   -6.5110 C   0  0  0  0  0  0  0  0  0  0  0  0
   36.8830   12.2310   -5.0080 C   0  0  0  0  0  0  0  0  0  0  0  0
   38.6360   12.5820   -3.4140 C   0  0  0  0  0  0  0  0  0  0  0  0
   39.4320   11.2900   -3.3930 C   0  0  0  0  0  0  0  0  0  0  0  0
   41.4370   10.5760   -4.4420 C   0  0  0  0  0  0  0  0  0  0  0  0
   42.9000   10.4040   -3.9610 C   0  0  0  0  0  0  0  0  0  0  0  0
   44.5650    8.7410   -4.1700 C   0  0  0  0  0  0  0  0  0  0  0  0
   45.0710    7.8050   -5.1780 C   0  0  0  0  0  0  0  0  0  0  0  0
   20.7040    9.8110   -0.4630 C   0  0  0  0  0  0  0  0  0  0  0  0
   20.3060    9.7690   -1.7540 C   0  0  0  0  0  0  0  0  0  0  0  0
   18.7570    9.7880   -2.0300 C   0  0  0  0  0  0  0  0  0  0  0  0
   18.5610    9.2770   -3.4670 C   0  0  0  0  0  0  0  0  0  0  0  0
   18.3410   11.2140   -2.0610 C   0  0  0  0  0  0  0  0  0  0  0  0
   17.8150    8.7980   -1.1440 C   0  0  0  0  0  0  0  0  0  0  0  0
   17.2100    7.7140   -1.9200 C   0  0  0  0  0  0  0  0  0  0  0  0
   18.6250    8.1120   -0.0720 C   0  0  0  0  0  0  0  0  0  0  0  0
   16.5830    9.5000   -0.4750 C   0  0  0  0  0  0  0  0  0  0  0  0
   17.0920   10.5420    0.4590 C   0  0  0  0  0  0  0  0  0  0  0  0
   15.8100    8.5330    0.3800 C   0  0  0  0  0  0  0  0  0  0  0  0
   15.6450   10.0070   -1.5040 C   0  0  0  0  0  0  0  0  0  0  0  0
   21.2160    9.1500   -2.8250 C   0  0  0  0  0  0  0  0  0  0  0  0
   23.4760    5.7950   -2.0520 C   0  0  0  0  0  0  0  0  0  0  0  0
   24.1410    4.7170   -2.7410 C   0  0  0  0  0  0  0  0  0  0  0  0
   25.4440    4.1910   -2.2920 C   0  0  0  0  0  0  0  0  0  0  0  0
   25.5050    4.4060   -0.7710 C   0  0  0  0  0  0  0  0  0  0  0  0
   25.5490    2.6780   -2.5240 C   0  0  0  0  0  0  0  0  0  0  0  0
   26.6510    4.9630   -3.0390 C   0  0  0  0  0  0  0  0  0  0  0  0
   26.4240    6.4100   -3.0880 C   0  0  0  0  0  0  0  0  0  0  0  0
   26.8290    4.4350   -4.4250 C   0  0  0  0  0  0  0  0  0  0  0  0
   28.1040    4.8290   -2.4460 C   0  0  0  0  0  0  0  0  0  0  0  0
   29.1380    5.5600   -3.2470 C   0  0  0  0  0  0  0  0  0  0  0  0
   28.5790    3.4010   -2.4040 C   0  0  0  0  0  0  0  0  0  0  0  0
   28.1650    5.4450   -1.1300 C   0  0  0  0  0  0  0  0  0  0  0  0
   23.5520    4.0730   -3.9050 C   0  0  0  0  0  0  0  0  0  0  0  0
   20.8550    5.0820   -3.9550 C   0  0  0  0  0  0  0  0  0  0  0  0
   20.1190    4.8570   -5.3160 C   0  0  0  0  0  0  0  0  0  0  0  0
   18.4810    5.0470   -5.1740 C   0  0  0  0  0  0  0  0  0  0  0  0
   17.7690    3.7180   -4.9610 C   0  0  0  0  0  0  0  0  0  0  0  0
   16.2130    3.9270   -4.5380 C   0  0  0  0  0  0  0  0  0  0  0  0
   15.5610    2.5950   -3.8280 C   0  0  0  0  0  0  0  0  0  0  0  0
   16.6440    1.7800   -3.0770 C   0  0  0  0  0  0  0  0  0  0  0  0
   15.2000    1.4040   -4.9950 C   0  0  0  0  0  0  0  0  0  0  0  0
   14.2440    2.6680   -3.1220 C   0  0  0  0  0  0  0  0  0  0  0  0
   14.7000    3.4480   -1.8970 C   0  0  0  0  0  0  0  0  0  0  0  0
   13.6780    1.4030   -2.6140 C   0  0  0  0  0  0  0  0  0  0  0  0
   13.2040    3.3530   -3.9030 C   0  0  0  0  0  0  0  0  0  0  0  0
   16.1380    4.8590   -3.7590 C   0  0  0  0  0  0  0  0  0  0  0  0
   15.3960    4.0000   -5.9010 C   0  0  0  0  0  0  0  0  0  0  0  0
   17.9600    2.7940   -6.4310 C   0  0  0  0  0  0  0  0  0  0  0  0
   19.2200    2.0760   -6.6960 C   0  0  0  0  0  0  0  0  0  0  0  0
   19.1770    0.9670   -7.8310 C   0  0  0  0  0  0  0  0  0  0  0  0
   20.4850    0.1000   -7.9100 C   0  0  0  0  0  0  0  0  0  0  0  0
   22.1010   -0.4640   -9.6360 C   0  0  0  0  0  0  0  0  0  0  0  0
   22.4080    0.0160  -11.0470 C   0  0  0  0  0  0  0  0  0  0  0  0
   22.1430   -0.5400  -13.3080 C   0  0  0  0  0  0  0  0  0  0  0  0
   23.5660   -0.7350  -13.6100 C   0  0  0  0  0  0  0  0  0  0  0  0
   25.2670   -0.0630  -15.0870 C   0  0  0  0  0  0  0  0  0  0  0  0
   26.0580    0.9520  -14.2960 C   0  0  0  0  0  0  0  0  0  0  0  0
   26.6540    3.2110  -14.2320 C   0  0  0  0  0  0  0  0  0  0  0  0
   26.7180    4.4330  -15.1620 C   0  0  0  0  0  0  0  0  0  0  0  0
   28.2600    3.5570  -16.7460 C   0  0  0  0  0  0  0  0  0  0  0  0
   27.9150    4.1000  -18.1000 C   0  0  0  0  0  0  0  0  0  0  0  0
   26.6500    3.4830  -19.9870 C   0  0  0  0  0  0  0  0  0  0  0  0
   25.7200    2.5060  -20.5860 C   0  0  0  0  0  0  0  0  0  0  0  0
   23.6170    1.4080  -20.1160 C   0  0  0  0  0  0  0  0  0  0  0  0
   22.5640    1.1320  -19.1010 C   0  0  0  0  0  0  0  0  0  0  0  0
   21.7480   -0.5760  -17.7010 C   0  0  0  0  0  0  0  0  0  0  0  0
   21.5480   -2.0470  -17.6080 C   0  0  0  0  0  0  0  0  0  0  0  0
   19.8380   -3.6020  -17.8530 C   0  0  0  0  0  0  0  0  0  0  0  0
   18.6370   -4.0250  -18.7980 C   0  0  0  0  0  0  0  0  0  0  0  0
   19.4920   -6.1630  -19.2680 C   0  0  0  0  0  0  0  0  0  0  0  0
   19.7530   -7.1160  -20.4520 C   0  0  0  0  0  0  0  0  0  0  0  0
   20.3140   -1.3190   -7.2340 C   0  0  0  0  0  0  0  0  0  0  0  0
   17.9490   -0.7400  -10.0560 C   0  0  0  0  0  0  0  0  0  0  0  0
   17.2800   -0.7360   -8.7290 C   0  0  0  0  0  0  0  0  0  0  0  0
   15.9170   -1.4000   -8.5450 C   0  0  0  0  0  0  0  0  0  0  0  0
   15.1450   -0.3670   -7.7970 C   0  0  0  0  0  0  0  0  0  0  0  0
   15.2660   -1.5690   -9.8880 C   0  0  0  0  0  0  0  0  0  0  0  0
   16.0360   -2.7540   -7.7820 C   0  0  0  0  0  0  0  0  0  0  0  0
   16.8580   -2.6430   -6.5580 C   0  0  0  0  0  0  0  0  0  0  0  0
   16.6890   -3.7710   -8.7480 C   0  0  0  0  0  0  0  0  0  0  0  0
   14.6330   -3.3900   -7.3600 C   0  0  0  0  0  0  0  0  0  0  0  0
   13.9410   -2.5350   -6.3590 C   0  0  0  0  0  0  0  0  0  0  0  0
   14.8640   -4.7160   -6.6760 C   0  0  0  0  0  0  0  0  0  0  0  0
   13.7560   -3.6870   -8.4780 C   0  0  0  0  0  0  0  0  0  0  0  0
   17.9750   -0.1120   -7.7680 C   0  0  0  0  0  0  0  0  0  0  0  0
   20.5720    3.1600   -6.3630 C   0  0  0  0  0  0  0  0  0  0  0  0
   22.2090    3.3930   -8.0340 C   0  0  0  0  0  0  0  0  0  0  0  0
   23.5520    2.8900   -8.6080 C   0  0  0  0  0  0  0  0  0  0  0  0
   25.7070    3.9120   -8.6660 C   0  0  0  0  0  0  0  0  0  0  0  0
   27.0060    3.2190   -8.2930 C   0  0  0  0  0  0  0  0  0  0  0  0
   28.3190    1.2180   -8.7710 C   0  0  0  0  0  0  0  0  0  0  0  0
   28.3400   -0.1150   -9.5300 C   0  0  0  0  0  0  0  0  0  0  0  0
   28.6680   -1.1380  -11.6320 C   0  0  0  0  0  0  0  0  0  0  0  0
   29.5110   -0.9810  -12.8690 C   0  0  0  0  0  0  0  0  0  0  0  0
   31.8460   -0.9510  -13.4820 C   0  0  0  0  0  0  0  0  0  0  0  0
   32.7600   -2.1120  -13.3870 C   0  0  0  0  0  0  0  0  0  0  0  0
   34.6640   -2.8330  -12.1490 C   0  0  0  0  0  0  0  0  0  0  0  0
   34.1000   -3.0170  -10.7260 C   0  0  0  0  0  0  0  0  0  0  0  0
   33.8180   -4.6850   -9.0920 C   0  0  0  0  0  0  0  0  0  0  0  0
   32.2830   -4.7760   -9.2220 C   0  0  0  0  0  0  0  0  0  0  0  0
   30.2670   -5.1760   -8.0980 C   0  0  0  0  0  0  0  0  0  0  0  0
   29.6350   -4.7630   -6.7790 C   0  0  0  0  0  0  0  0  0  0  0  0
   30.4590   -2.7190   -6.0190 C   0  0  0  0  0  0  0  0  0  0  0  0
   29.9720   -1.3440   -5.6370 C   0  0  0  0  0  0  0  0  0  0  0  0
   30.6540   -0.2380   -3.6880 C   0  0  0  0  0  0  0  0  0  0  0  0
   31.8450    0.4060   -2.9700 C   0  0  0  0  0  0  0  0  0  0  0  0
  1  3  1  0  0  0  0
  1  2  1  0  0  0  0
  3  4  1  0  0  0  0
  4  5  1  0  0  0  0
  5  7  1  0  0  0  0
  6  9  1  0  0  0  0
  6  7  1  0  0  0  0
  8 13  1  0  0  0  0
  9 11  1  0  0  0  0
 10 17  1  0  0  0  0
  8 11  1  0  0  0  0
 12 21  1  0  0  0  0
 13 15  1  0  0  0  0
 14 25  1  0  0  0  0
 10 15  1  0  0  0  0
 16 29  1  0  0  0  0
 17 19  1  0  0  0  0
 18 39  1  0  0  0  0
 12 19  1  0  0  0  0
 20 43  1  0  0  0  0
 21 23  1  0  0  0  0
 22 51  1  0  0  0  0
 14 23  1  0  0  0  0
 24 55  1  0  0  0  0
 25 27  1  0  0  0  0
 26 59  1  0  0  0  0
 16 27  1  0  0  0  0
 28 63  1  0  0  0  0
 29 31  1  0  0  0  0
 30 67  1  0  0  0  0
 31 33  1  0  0  0  0
 32 71  1  0  0  0  0
 33 35  1  0  0  0  0
 34 75  1  0  0  0  0
 35 37  1  0  0  0  0
 36 79  1  0  0  0  0
 18 37  1  0  0  0  0
 38 83  1  0  0  0  0
 39 41  1  0  0  0  0
 40 87  1  0  0  0  0
 20 41  1  0  0  0  0
 43 45  1  0  0  0  0
 43163  1  0  0  0  0
 44117  1  0  0  0  0
 45 47  1  0  0  0  0
 45150  1  0  0  0  0
 46119  1  0  0  0  0
 47 49  1  0  0  0  0
 47149  1  0  0  0  0
 48121  1  0  0  0  0
 22 49  1  0  0  0  0
 49 91  1  0  0  0  0
 49137  1  0  0  0  0
 50123  1  0  0  0  0
 51 53  1  0  0  0  0
 52125  1  0  0  0  0
 24 53  1  0  0  0  0
 54127  1  0  0  0  0
 55 57  1  0  0  0  0
 56129  1  0  0  0  0
 26 57  1  0  0  0  0
 58131  1  0  0  0  0
 59 61  1  0  0  0  0
 60133  1  0  0  0  0
 28 61  1  0  0  0  0
 62135  1  0  0  0  0
 63 65  1  0  0  0  0
 30 65  1  0  0  0  0
 66181  1  0  0  0  0
 67 69  1  0  0  0  0
 68183  1  0  0  0  0
 32 69  1  0  0  0  0
 70185  1  0  0  0  0
 71 73  1  0  0  0  0
 72187  1  0  0  0  0
 34 73  1  0  0  0  0
 74189  1  0  0  0  0
 75 77  1  0  0  0  0
 76191  1  0  0  0  0
 36 77  1  0  0  0  0
 78193  1  0  0  0  0
 79 81  1  0  0  0  0
 80195  1  0  0  0  0
 38 81  1  0  0  0  0
 82197  1  0  0  0  0
 83 85  1  0  0  0  0
 84199  1  0  0  0  0
 40 85  1  0  0  0  0
 87 89  1  0  0  0  0
 88216  1  0  0  0  0
 42 89  1  0  0  0  0
 90218  1  0  0  0  0
 91 93  1  0  0  0  0
 91137  1  0  0  0  0
 92220  1  0  0  0  0
 93 95  4  0  0  0  0
 93116  4  0  0  0  0
 93137  1  0  0  0  0
 94222  1  0  0  0  0
 95 97  4  0  0  0  0
 96224  1  0  0  0  0
 97 99  1  0  0  0  0
 97114  4  0  0  0  0
 98226  1  0  0  0  0
 99101  1  0  0  0  0
 99103  1  0  0  0  0
 99105  1  0  0  0  0
100228  1  0  0  0  0
102230  1  0  0  0  0
104232  1  0  0  0  0
105107  1  0  0  0  0
105112  1  0  0  0  0
105113  1  0  0  0  0
106234  1  0  0  0  0
107109  1  0  0  0  0
107110  1  0  0  0  0
107111  1  0  0  0  0
114115  4  0  0  0  0
115116  4  0  0  0  0
 44116  1  0  0  0  0
117118  1  0  0  0  0
 46118  1  0  0  0  0
119120  1  0  0  0  0
 48120  1  0  0  0  0
121122  1  0  0  0  0
 50122  1  0  0  0  0
123124  1  0  0  0  0
 52124  1  0  0  0  0
125126  1  0  0  0  0
 54126  1  0  0  0  0
127128  1  0  0  0  0
 56128  1  0  0  0  0
129130  1  0  0  0  0
 58130  1  0  0  0  0
131132  1  0  0  0  0
 60132  1  0  0  0  0
133134  1  0  0  0  0
 62134  1  0  0  0  0
135136  1  0  0  0  0
 64136  1  0  0  0  0
137138  1  0  0  0  0
138139  1  0  0  0  0
138149  1  0  0  0  0
139140  1  0  0  0  0
139141  1  0  0  0  0
139142  1  0  0  0  0
142143  1  0  0  0  0
142144  1  0  0  0  0
142145  1  0  0  0  0
145146  1  0  0  0  0
145147  1  0  0  0  0
145148  1  0  0  0  0
150151  1  0  0  0  0
151152  1  0  0  0  0
151162  1  0  0  0  0
152153  1  0  0  0  0
152154  1  0  0  0  0
152155  1  0  0  0  0
155156  1  0  0  0  0
155157  1  0  0  0  0
155158  1  0  0  0  0
158159  1  0  0  0  0
158160  1  0  0  0  0
158161  1  0  0  0  0
163164  1  0  0  0  0
164165  1  0  0  0  0
164215  1  0  0  0  0
165166  1  0  0  0  0
166167  1  0  0  0  0
166177  1  0  0  0  0
167168  1  0  0  0  0
167175  1  0  0  0  0
167176  1  0  0  0  0
168169  1  0  0  0  0
168170  1  0  0  0  0
168171  1  0  0  0  0
171172  1  0  0  0  0
171173  1  0  0  0  0
171174  1  0  0  0  0
177178  1  0  0  0  0
178179  1  0  0  0  0
178215  1  0  0  0  0
179180  1  0  0  0  0
179214  1  0  0  0  0
 66180  1  0  0  0  0
180201  1  0  0  0  0
181182  1  0  0  0  0
 68182  1  0  0  0  0
183184  1  0  0  0  0
 70184  1  0  0  0  0
185186  1  0  0  0  0
 72186  1  0  0  0  0
187188  1  0  0  0  0
 74188  1  0  0  0  0
189190  1  0  0  0  0
 76190  1  0  0  0  0
191192  1  0  0  0  0
 78192  1  0  0  0  0
193194  1  0  0  0  0
 80194  1  0  0  0  0
195196  1  0  0  0  0
 82196  1  0  0  0  0
197198  1  0  0  0  0
 84198  1  0  0  0  0
199200  1  0  0  0  0
 86200  1  0  0  0  0
202203  1  0  0  0  0
203204  1  0  0  0  0
203214  1  0  0  0  0
204205  1  0  0  0  0
204206  1  0  0  0  0
204207  1  0  0  0  0
207208  1  0  0  0  0
207209  1  0  0  0  0
207210  1  0  0  0  0
210211  1  0  0  0  0
210212  1  0  0  0  0
210213  1  0  0  0  0
 88215  1  0  0  0  0
216217  1  0  0  0  0
 90217  1  0  0  0  0
218219  1  0  0  0  0
 92219  1  0  0  0  0
220221  1  0  0  0  0
 94221  1  0  0  0  0
222223  1  0  0  0  0
 96223  1  0  0  0  0
224225  1  0  0  0  0
 98225  1  0  0  0  0
226227  1  0  0  0  0
100227  1  0  0  0  0
228229  1  0  0  0  0
102229  1  0  0  0  0
230231  1  0  0  0  0
104231  1  0  0  0  0
232233  1  0  0  0  0
106233  1  0  0  0  0
234235  1  0  0  0  0
108235  1  0  0  0  0
M  END
$$$$
