human_CD1d_ODG_pred.rank_0
  PyMOL3.1          3D                             0

 20 20  0  0  0  0  0  0  0  0999 V2000
  -16.1680   18.9800   11.0810 C   0  0  0  0  0  0  0  0  0  0  0  0
  -16.4490   19.4750   12.3870 O   0  0  0  0  0  0  0  0  0  0  0  0
  -16.4950   20.0410   10.0390 C   0  0  0  0  0  0  0  0  0  0  0  0
  -17.8660   20.3010   10.0430 O   0  0  0  0  0  0  0  0  0  0  0  0
  -16.0720   19.5540    8.6600 C   0  0  0  0  0  0  0  0  0  0  0  0
  -16.2750   20.6280    7.7200 O   0  0  0  0  0  0  0  0  0  0  0  0
  -14.5650   19.2280    8.6830 C   0  0  0  0  0  0  0  0  0  0  0  0
  -14.2170   18.7170    7.4030 O   0  0  0  0  0  0  0  0  0  0  0  0
  -12.8430   18.9310    7.0860 C   0  0  0  0  0  0  0  0  0  0  0  0
  -14.3000   18.1630    9.6420 O   0  0  0  0  0  0  0  0  0  0  0  0
  -12.8470   19.7200    5.7510 C   0  0  0  0  0  0  0  0  0  0  0  0
  -12.9380   17.4120   12.0660 O   0  0  0  0  0  0  0  0  0  0  0  0
  -11.4720   19.6030    5.0930 C   0  0  0  0  0  0  0  0  0  0  0  0
  -11.3530   20.6830    3.9970 C   0  0  0  0  0  0  0  0  0  0  0  0
  -11.3260   20.0030    2.6660 C   0  0  0  0  0  0  0  0  0  0  0  0
  -11.4490   21.0710    1.5710 C   0  0  0  0  0  0  0  0  0  0  0  0
  -11.6550   20.3720    0.2590 C   0  0  0  0  0  0  0  0  0  0  0  0
  -12.2860   21.3410   -0.7300 C   0  0  0  0  0  0  0  0  0  0  0  0
  -14.6830   18.6120   10.9990 C   0  0  0  0  0  0  0  0  0  0  0  0
  -14.3620   17.4610   11.9480 C   0  0  0  0  0  0  0  0  0  0  0  0
  1  3  1  0  0  0  0
  1 19  1  0  0  0  0
  1  2  1  0  0  0  0
  3  4  1  0  0  0  0
  3  5  1  0  0  0  0
  5  6  1  0  0  0  0
  5  7  1  0  0  0  0
  7  8  1  0  0  0  0
  7 10  1  0  0  0  0
  8  9  1  0  0  0  0
  9 11  1  0  0  0  0
 10 19  1  0  0  0  0
 11 13  1  0  0  0  0
 13 14  1  0  0  0  0
 14 15  1  0  0  0  0
 15 16  1  0  0  0  0
 16 17  1  0  0  0  0
 17 18  1  0  0  0  0
 19 20  1  0  0  0  0
 12 20  1  0  0  0  0
M  END
$$$$
