MODEL 1
REMARK VINA RESULT:      -7.5      0.000      0.000
REMARK  Name = human_CD1d_CTAB_pred.rank_0
REMARK  15 active torsions:
REMARK  status: ('A' for Active; 'I' for Inactive)
REMARK    1  A    between atoms: N_2  and  C_17
REMARK    2  A    between atoms: C_3  and  C_4
REMARK    3  A    between atoms: C_4  and  C_5
REMARK    4  A    between atoms: C_5  and  C_6
REMARK    5  A    between atoms: C_6  and  C_7
REMARK    6  A    between atoms: C_7  and  C_8
REMARK    7  A    between atoms: C_8  and  C_9
REMARK    8  A    between atoms: C_9  and  C_10
REMARK    9  A    between atoms: C_10  and  C_11
REMARK   10  A    between atoms: C_11  and  C_12
REMARK   11  A    between atoms: C_12  and  C_13
REMARK   12  A    between atoms: C_13  and  C_14
REMARK   13  A    between atoms: C_14  and  C_15
REMARK   14  A    between atoms: C_15  and  C_16
REMARK   15  A    between atoms: C_16  and  C_17
REMARK                            x       y       z     vdW  Elec       q    Type
REMARK                         _______ _______ _______ _____ _____    ______ ____
ROOT
ATOM      1  C   UNL     1      -5.598   8.862  16.676  0.00  0.00    +0.000 C 
ENDROOT
BRANCH   1   2
ATOM      2  C   UNL     1      -6.007   9.961  15.741  0.00  0.00    +0.000 C 
BRANCH   2   3
ATOM      3  C   UNL     1      -7.423   9.754  15.238  0.00  0.00    +0.000 C 
BRANCH   3   4
ATOM      4  C   UNL     1      -7.869   8.326  15.469  0.00  0.00    +0.000 C 
BRANCH   4   5
ATOM      5  C   UNL     1      -9.400   8.229  15.289  0.00  0.00    +0.000 C 
BRANCH   5   6
ATOM      6  C   UNL     1      -9.877   6.794  15.443  0.00  0.00    +0.000 C 
BRANCH   6   7
ATOM      7  C   UNL     1      -8.665   5.875  15.594  0.00  0.00    +0.000 C 
BRANCH   7   8
ATOM      8  C   UNL     1      -9.104   4.435  15.725  0.00  0.00    +0.000 C 
BRANCH   8  10
ATOM      9  C   UNL     1     -11.006   3.410  14.521  0.00  0.00    +0.000 C 
ATOM     10  C   UNL     1     -10.618   4.378  15.593  0.00  0.00    +0.000 C 
ENDBRANCH   8  10
ENDBRANCH   7   8
ENDBRANCH   6   7
ENDBRANCH   5   6
ENDBRANCH   4   5
ENDBRANCH   3   4
ENDBRANCH   2   3
ENDBRANCH   1   2
BRANCH   1  11
ATOM     11  C   UNL     1      -4.939   9.428  17.916  0.00  0.00    +0.000 C 
BRANCH  11  12
ATOM     12  C   UNL     1      -4.251   8.319  18.681  0.00  0.00    +0.000 C 
BRANCH  12  13
ATOM     13  C   UNL     1      -4.415   7.012  17.935  0.00  0.00    +0.000 C 
BRANCH  13  14
ATOM     14  C   UNL     1      -4.328   5.848  18.909  0.00  0.00    +0.000 C 
BRANCH  14  15
ATOM     15  C   UNL     1      -4.549   6.356  20.348  0.00  0.00    +0.000 C 
BRANCH  15  16
ATOM     16  C   UNL     1      -4.104   5.310  21.360  0.00  0.00    +0.000 C 
BRANCH  16  17
ATOM     17  N   UNL     1      -5.238   4.906  22.200  0.00  0.00    +0.000 N 
ATOM     18  C   UNL     1      -6.064   6.082  22.402  0.00  0.00    +0.000 C 
ATOM     19  C   UNL     1      -4.746   4.466  23.483  0.00  0.00    +0.000 C 
ATOM     20  C   UNL     1      -6.044   3.864  21.566  0.00  0.00    +0.000 C 
ENDBRANCH  16  17
ENDBRANCH  15  16
ENDBRANCH  14  15
ENDBRANCH  13  14
ENDBRANCH  12  13
ENDBRANCH  11  12
ENDBRANCH   1  11
TORSDOF 15
BEGIN_RES LEU A  10
REMARK  2 active torsions:
REMARK  status: ('A' for Active; 'I' for Inactive)
REMARK    1  A    between atoms: CA   and  CB  
REMARK    2  A    between atoms: CB   and  CG  
ROOT
ATOM      1  CA  LEU A  10     -10.775  -4.871   5.898  1.00 25.14     0.177 C 
ENDROOT
BRANCH   1   2
ATOM      2  CB  LEU A  10     -12.191  -4.387   6.226  1.00 17.87     0.038 C 
BRANCH   2   3
ATOM      3  CG  LEU A  10     -12.388  -2.875   6.099  1.00 24.95    -0.020 C 
ATOM      4  CD2 LEU A  10     -13.674  -2.496   6.753  1.00 26.38     0.009 C 
ATOM      5  CD1 LEU A  10     -12.382  -2.447   4.642  1.00 28.12     0.009 C 
ENDBRANCH   2   3
ENDBRANCH   1   2
END_RES LEU A  10
BEGIN_RES CYS A  12
REMARK  2 active torsions:
REMARK  status: ('A' for Active; 'I' for Inactive)
REMARK    3  A    between atoms: CA   and  CB  
REMARK    4  A    between atoms: CB   and  SG  
ROOT
ATOM      6  CA  CYS A  12      -8.555   0.470   8.750  1.00 23.16     0.185 C 
ENDROOT
BRANCH   6   7
ATOM      7  CB  CYS A  12      -9.828   0.763   9.555  1.00 20.43     0.105 C 
BRANCH   7   8
ATOM      8  SG  CYS A  12     -10.932   2.036   8.870  1.00 24.64    -0.180 SA
ATOM      9  H04 CYS A  12     -10.213   2.922   8.168  1.00 24.64     0.101 HD
ENDBRANCH   7   8
ENDBRANCH   6   7
END_RES CYS A  12
BEGIN_RES GLN A  14
REMARK  3 active torsions:
REMARK  status: ('A' for Active; 'I' for Inactive)
REMARK    5  A    between atoms: CA   and  CB  
REMARK    6  A    between atoms: CB   and  CG  
REMARK    7  A    between atoms: CG   and  CD  
REMARK       I    between atoms: CD   and  NE2 
ROOT
ATOM     10  CA  GLN A  14      -4.645   5.402  11.377  1.00 10.43     0.177 C 
ENDROOT
BRANCH  10  11
ATOM     11  CB  GLN A  14      -5.541   5.549  12.608  1.00 14.45     0.044 C 
BRANCH  11  12
ATOM     12  CG  GLN A  14      -6.618   6.600  12.465  1.00 13.74     0.105 C 
BRANCH  12  13
ATOM     13  CD  GLN A  14      -6.051   7.983  12.256  1.00 16.29     0.215 C 
ATOM     14  NE2 GLN A  14      -6.684   8.753  11.398  1.00  8.57    -0.370 N 
ATOM     15  H06 GLN A  14      -6.351   9.689  11.219  1.00  8.57     0.159 HD
ATOM     16  H07 GLN A  14      -7.503   8.408  10.918  1.00  8.57     0.159 HD
ATOM     17  OE1 GLN A  14      -5.058   8.355  12.862  1.00 23.55    -0.274 OA
ENDBRANCH  12  13
ENDBRANCH  11  12
ENDBRANCH  10  11
END_RES GLN A  14
BEGIN_RES SER A  16
REMARK  2 active torsions:
REMARK  status: ('A' for Active; 'I' for Inactive)
REMARK    8  A    between atoms: CA   and  CB  
REMARK    9  A    between atoms: CB   and  OG  
ROOT
ATOM     18  CA  SER A  16      -1.305  10.019  14.282  1.00  2.34     0.200 C 
ENDROOT
BRANCH  18  19
ATOM     19  CB  SER A  16      -2.242   9.935  15.479  1.00  3.12     0.199 C 
BRANCH  19  20
ATOM     20  OG  SER A  16      -1.945   8.789  16.257  1.00  1.00    -0.398 OA
ATOM     21  H04 SER A  16      -2.238   8.002  15.793  1.00  1.00     0.209 HD
ENDBRANCH  19  20
ENDBRANCH  18  19
END_RES SER A  16
BEGIN_RES LEU A  32
REMARK  2 active torsions:
REMARK  status: ('A' for Active; 'I' for Inactive)
REMARK   10  A    between atoms: CA   and  CB  
REMARK   11  A    between atoms: CB   and  CG  
ROOT
ATOM     22  CA  LEU A  32     -10.272  -4.106   1.587  1.00 16.16     0.177 C 
ENDROOT
BRANCH  22  23
ATOM     23  CB  LEU A  32     -11.613  -3.858   0.880  1.00 12.35     0.038 C 
BRANCH  23  24
ATOM     24  CG  LEU A  32     -12.578  -5.050   1.044  1.00  9.77    -0.020 C 
ATOM     25  CD1 LEU A  32     -13.028  -5.167   2.481  1.00  4.35     0.009 C 
ATOM     26  CD2 LEU A  32     -13.778  -4.897   0.147  1.00 10.60     0.009 C 
ENDBRANCH  23  24
ENDBRANCH  22  23
END_RES LEU A  32
BEGIN_RES HIS A  38
REMARK  2 active torsions:
REMARK  status: ('A' for Active; 'I' for Inactive)
REMARK   12  A    between atoms: CA   and  CB  
REMARK   13  A    between atoms: CB   and  CG  
ROOT
ATOM     27  CA  HIS A  38     -10.959   4.941   1.621  1.00 16.94     0.182 C 
ENDROOT
BRANCH  27  28
ATOM     28  CB  HIS A  38     -11.810   4.840   2.881  1.00 15.47     0.095 C 
BRANCH  28  29
ATOM     29  CG  HIS A  38     -13.002   3.950   2.735  1.00 18.62     0.053 A 
ATOM     30  CD2 HIS A  38     -14.166   4.127   2.065  1.00 15.06     0.116 A 
ATOM     31  NE2 HIS A  38     -14.905   2.984   2.234  1.00 18.12    -0.359 N 
ATOM     32  CE1 HIS A  38     -14.222   2.137   2.980  1.00 14.78     0.207 A 
ATOM     33  H06 HIS A  38     -15.824   2.819   1.849  1.00 18.12     0.166 HD
ATOM     34  ND1 HIS A  38     -13.071   2.695   3.297  1.00 16.58    -0.247 NA
ENDBRANCH  28  29
ENDBRANCH  27  28
END_RES HIS A  38
BEGIN_RES TRP A  63
REMARK  2 active torsions:
REMARK  status: ('A' for Active; 'I' for Inactive)
REMARK   14  A    between atoms: CA   and  CB  
REMARK   15  A    between atoms: CB   and  CG  
ROOT
ATOM     35  CA  TRP A  63     -22.437   6.257   6.543  1.00 27.04     0.181 C 
ENDROOT
BRANCH  35  36
ATOM     36  CB  TRP A  63     -22.360   6.642   5.068  1.00 31.37     0.075 C 
BRANCH  36  37
ATOM     37  CG  TRP A  63     -20.953   6.780   4.526  1.00 34.37    -0.028 A 
ATOM     38  CD2 TRP A  63     -19.887   5.826   4.627  1.00 33.79    -0.002 A 
ATOM     39  CE3 TRP A  63     -19.752   4.580   5.244  1.00 32.99     0.014 A 
ATOM     40  CE2 TRP A  63     -18.786   6.353   3.916  1.00 35.84     0.042 A 
ATOM     41  CZ3 TRP A  63     -18.542   3.909   5.136  1.00 32.93     0.001 A 
ATOM     42  CH2 TRP A  63     -17.466   4.460   4.423  1.00 39.24     0.002 A 
ATOM     43  CZ2 TRP A  63     -17.569   5.679   3.806  1.00 37.99     0.030 A 
ATOM     44  NE1 TRP A  63     -19.169   7.566   3.414  1.00 37.98    -0.365 N 
ATOM     45  H06 TRP A  63     -18.591   8.181   2.858  1.00 37.98     0.165 HD
ATOM     46  CD1 TRP A  63     -20.468   7.813   3.787  1.00 38.16     0.096 A 
ENDBRANCH  36  37
ENDBRANCH  35  36
END_RES TRP A  63
BEGIN_RES LEU A  66
REMARK  2 active torsions:
REMARK  status: ('A' for Active; 'I' for Inactive)
REMARK   16  A    between atoms: CA   and  CB  
REMARK   17  A    between atoms: CB   and  CG  
ROOT
ATOM     47  CA  LEU A  66     -20.004   6.489  11.120  1.00 10.90     0.177 C 
ENDROOT
BRANCH  47  48
ATOM     48  CB  LEU A  66     -19.626   5.453  10.069  1.00 13.57     0.038 C 
BRANCH  48  49
ATOM     49  CG  LEU A  66     -19.379   4.024  10.552  1.00  8.73    -0.020 C 
ATOM     50  CD1 LEU A  66     -19.252   3.986  12.053  1.00 14.23     0.009 C 
ATOM     51  CD2 LEU A  66     -20.534   3.164  10.108  1.00  1.92     0.009 C 
ENDBRANCH  48  49
ENDBRANCH  47  48
END_RES LEU A  66
BEGIN_RES PHE A  70
REMARK  2 active torsions:
REMARK  status: ('A' for Active; 'I' for Inactive)
REMARK   18  A    between atoms: CA   and  CB  
REMARK   19  A    between atoms: CB   and  CG  
ROOT
ATOM     52  CA  PHE A  70     -14.974   9.434  13.165  1.00  8.78     0.180 C 
ENDROOT
BRANCH  52  53
ATOM     53  CB  PHE A  70     -14.707   9.132  11.681  1.00  6.33     0.073 C 
BRANCH  53  54
ATOM     54  CG  PHE A  70     -13.962   7.844  11.457  1.00  3.42    -0.056 A 
ATOM     55  CD1 PHE A  70     -13.462   7.112  12.523  1.00 13.88     0.007 A 
ATOM     56  CE1 PHE A  70     -12.726   5.934  12.305  1.00 12.71     0.001 A 
ATOM     57  CZ  PHE A  70     -12.490   5.485  11.005  1.00  4.21     0.000 A 
ATOM     58  CE2 PHE A  70     -12.985   6.206   9.934  1.00  2.83     0.001 A 
ATOM     59  CD2 PHE A  70     -13.719   7.382  10.163  1.00  1.00     0.007 A 
ENDBRANCH  53  54
ENDBRANCH  52  53
END_RES PHE A  70
BEGIN_RES TYR A  73
REMARK  3 active torsions:
REMARK  status: ('A' for Active; 'I' for Inactive)
REMARK   20  A    between atoms: CA   and  CB  
REMARK   21  A    between atoms: CB   and  CG  
REMARK   22  A    between atoms: CZ   and  OH  
ROOT
ATOM     60  CA  TYR A  73     -13.212  10.166  17.260  1.00 12.17     0.180 C 
ENDROOT
BRANCH  60  61
ATOM     61  CB  TYR A  73     -13.301   8.846  16.517  1.00 12.84     0.073 C 
BRANCH  61  62
ATOM     62  CG  TYR A  73     -13.576   7.689  17.413  1.00 15.89    -0.056 A 
ATOM     63  CD1 TYR A  73     -13.941   7.879  18.728  1.00 16.00     0.010 A 
ATOM     64  CE1 TYR A  73     -14.169   6.797  19.577  1.00 13.55     0.037 A 
ATOM     65  CZ  TYR A  73     -14.024   5.513  19.091  1.00 18.13     0.065 A 
ATOM     66  CE2 TYR A  73     -13.661   5.296  17.782  1.00 15.89     0.037 A 
ATOM     67  CD2 TYR A  73     -13.439   6.386  16.950  1.00 21.86     0.010 A 
BRANCH  65  68
ATOM     68  OH  TYR A  73     -14.249   4.433  19.908  1.00 12.12    -0.361 OA
ATOM     69  H08 TYR A  73     -14.376   3.646  19.372  1.00 12.12     0.217 HD
ENDBRANCH  65  68
ENDBRANCH  61  62
ENDBRANCH  60  61
END_RES TYR A  73
BEGIN_RES PHE A  77
REMARK  2 active torsions:
REMARK  status: ('A' for Active; 'I' for Inactive)
REMARK   23  A    between atoms: CA   and  CB  
REMARK   24  A    between atoms: CB   and  CG  
ROOT
ATOM     70  CA  PHE A  77      -8.400  10.581  20.110  1.00 17.17     0.180 C 
ENDROOT
BRANCH  70  71
ATOM     71  CB  PHE A  77      -8.228   9.750  18.851  1.00 10.44     0.073 C 
BRANCH  71  72
ATOM     72  CG  PHE A  77      -8.678   8.330  19.000  1.00  6.07    -0.056 A 
ATOM     73  CD2 PHE A  77      -7.758   7.317  19.149  1.00  9.61     0.007 A 
ATOM     74  CE2 PHE A  77      -8.167   5.996  19.289  1.00  1.00     0.001 A 
ATOM     75  CZ  PHE A  77      -9.516   5.686  19.283  1.00  1.92     0.000 A 
ATOM     76  CE1 PHE A  77     -10.448   6.687  19.136  1.00  9.25     0.001 A 
ATOM     77  CD1 PHE A  77     -10.025   8.009  18.995  1.00  9.63     0.007 A 
ENDBRANCH  71  72
ENDBRANCH  70  71
END_RES PHE A  77
BEGIN_RES LEU A  96
REMARK  2 active torsions:
REMARK  status: ('A' for Active; 'I' for Inactive)
REMARK   25  A    between atoms: CA   and  CB  
REMARK   26  A    between atoms: CB   and  CG  
ROOT
ATOM     78  CA  LEU A  96       0.717   6.481  17.359  1.00 16.08     0.177 C 
ENDROOT
BRANCH  78  79
ATOM     79  CB  LEU A  96      -0.370   7.101  18.230  1.00 18.83     0.038 C 
BRANCH  79  80
ATOM     80  CG  LEU A  96      -0.238   6.798  19.722  1.00 19.03    -0.020 C 
ATOM     81  CD1 LEU A  96      -1.176   7.701  20.489  1.00 28.17     0.009 C 
ATOM     82  CD2 LEU A  96      -0.617   5.363  20.004  1.00 22.01     0.009 C 
ENDBRANCH  79  80
ENDBRANCH  78  79
END_RES LEU A  96
BEGIN_RES VAL A  98
REMARK  1 active torsions:
REMARK  status: ('A' for Active; 'I' for Inactive)
REMARK   27  A    between atoms: CA   and  CB  
ROOT
ATOM     83  CA  VAL A  98      -3.928   2.082  14.897  1.00 19.83     0.180 C 
ENDROOT
BRANCH  83  84
ATOM     84  CB  VAL A  98      -5.203   2.807  15.281  1.00 17.87     0.009 C 
ATOM     85  CG2 VAL A  98      -4.932   4.281  15.439  1.00 29.90     0.012 C 
ATOM     86  CG1 VAL A  98      -5.752   2.221  16.565  1.00 14.79     0.012 C 
ENDBRANCH  83  84
END_RES VAL A  98
BEGIN_RES ASN A 112
REMARK  2 active torsions:
REMARK  status: ('A' for Active; 'I' for Inactive)
REMARK   28  A    between atoms: CA   and  CB  
REMARK   29  A    between atoms: CB   and  CG  
REMARK       I    between atoms: CG   and  ND2 
ROOT
ATOM     87  CA  ASN A 112     -11.790  -8.793  14.069  1.00 37.70     0.185 C 
ENDROOT
BRANCH  87  88
ATOM     88  CB  ASN A 112     -12.992  -7.945  14.465  1.00 26.24     0.137 C 
BRANCH  88  89
ATOM     89  CG  ASN A 112     -13.814  -8.564  15.573  1.00 21.77     0.217 C 
ATOM     90  ND2 ASN A 112     -14.962  -9.133  15.206  1.00  9.31    -0.370 N 
ATOM     91  H04 ASN A 112     -15.558  -9.562  15.900  1.00  9.31     0.159 HD
ATOM     92  H05 ASN A 112     -15.236  -9.136  14.233  1.00  9.31     0.159 HD
ATOM     93  OD1 ASN A 112     -13.429  -8.528  16.748  1.00 21.61    -0.274 OA
ENDBRANCH  88  89
ENDBRANCH  87  88
END_RES ASN A 112
BEGIN_RES PHE A 114
REMARK  2 active torsions:
REMARK  status: ('A' for Active; 'I' for Inactive)
REMARK   30  A    between atoms: CA   and  CB  
REMARK   31  A    between atoms: CB   and  CG  
ROOT
ATOM     94  CA  PHE A 114      -7.754  -3.619  17.012  1.00 26.06     0.180 C 
ENDROOT
BRANCH  94  95
ATOM     95  CB  PHE A 114      -8.890  -3.080  17.867  1.00 19.95     0.073 C 
BRANCH  95  96
ATOM     96  CG  PHE A 114      -9.212  -1.648  17.589  1.00 17.65    -0.056 A 
ATOM     97  CD1 PHE A 114      -8.200  -0.699  17.474  1.00 13.01     0.007 A 
ATOM     98  CE1 PHE A 114      -8.501   0.638  17.244  1.00  6.74     0.001 A 
ATOM     99  CZ  PHE A 114      -9.826   1.044  17.123  1.00  6.27     0.000 A 
ATOM    100  CE2 PHE A 114     -10.842   0.108  17.235  1.00 17.36     0.001 A 
ATOM    101  CD2 PHE A 114     -10.532  -1.236  17.467  1.00 18.39     0.007 A 
ENDBRANCH  95  96
ENDBRANCH  94  95
END_RES PHE A 114
BEGIN_RES VAL A 116
REMARK  1 active torsions:
REMARK  status: ('A' for Active; 'I' for Inactive)
REMARK   32  A    between atoms: CA   and  CB  
ROOT
ATOM    102  CA  VAL A 116      -2.467   0.283  18.565  1.00 13.48     0.180 C 
ENDROOT
BRANCH 102 103
ATOM    103  CB  VAL A 116      -3.101   1.238  19.599  1.00 20.86     0.009 C 
ATOM    104  CG1 VAL A 116      -3.009   2.679  19.089  1.00 25.01     0.012 C 
ATOM    105  CG2 VAL A 116      -4.529   0.842  19.893  1.00 25.34     0.012 C 
ENDBRANCH 102 103
END_RES VAL A 116
BEGIN_RES ILE A 123
REMARK  2 active torsions:
REMARK  status: ('A' for Active; 'I' for Inactive)
REMARK   33  A    between atoms: CA   and  CB  
REMARK   34  A    between atoms: CB   and  CG1 
ROOT
ATOM    106  CA  ILE A 123       1.557  -1.626  23.222  1.00 15.07     0.180 C 
ENDROOT
BRANCH 106 107
ATOM    107  CB  ILE A 123       1.697  -0.112  23.461  1.00 14.41     0.013 C 
ATOM    108  CG2 ILE A 123       3.096   0.206  23.958  1.00 18.35     0.012 C 
BRANCH 107 109
ATOM    109  CG1 ILE A 123       1.406   0.657  22.175  1.00 15.23     0.002 C 
ATOM    110  CD1 ILE A 123       0.225   1.591  22.281  1.00 14.67     0.005 C 
ENDBRANCH 107 109
ENDBRANCH 106 107
END_RES ILE A 123
BEGIN_RES LEU A 124
REMARK  2 active torsions:
REMARK  status: ('A' for Active; 'I' for Inactive)
REMARK   35  A    between atoms: CA   and  CB  
REMARK   36  A    between atoms: CB   and  CG  
ROOT
ATOM    111  CA  LEU A 124      -2.057  -2.686  23.524  1.00 11.86     0.177 C 
ENDROOT
BRANCH 111 112
ATOM    112  CB  LEU A 124      -2.698  -1.652  24.429  1.00 14.60     0.038 C 
BRANCH 112 113
ATOM    113  CG  LEU A 124      -2.624  -0.252  23.839  1.00 16.19    -0.020 C 
ATOM    114  CD1 LEU A 124      -4.044   0.205  23.452  1.00 22.07     0.009 C 
ATOM    115  CD2 LEU A 124      -1.986   0.681  24.837  1.00  9.12     0.009 C 
ENDBRANCH 112 113
ENDBRANCH 111 112
END_RES LEU A 124
BEGIN_RES PHE A 126
REMARK  2 active torsions:
REMARK  status: ('A' for Active; 'I' for Inactive)
REMARK   37  A    between atoms: CA   and  CB  
REMARK   38  A    between atoms: CB   and  CG  
ROOT
ATOM    116  CA  PHE A 126      -8.784  -4.792  22.233  1.00 23.15     0.180 C 
ENDROOT
BRANCH 116 117
ATOM    117  CB  PHE A 126      -9.823  -4.011  21.461  1.00 20.65     0.073 C 
BRANCH 117 118
ATOM    118  CG  PHE A 126     -10.954  -3.551  22.295  1.00 23.65    -0.056 A 
ATOM    119  CD2 PHE A 126     -12.208  -4.122  22.161  1.00 36.63     0.007 A 
ATOM    120  CE2 PHE A 126     -13.279  -3.686  22.953  1.00 36.27     0.001 A 
ATOM    121  CZ  PHE A 126     -13.086  -2.673  23.880  1.00 18.06     0.000 A 
ATOM    122  CE1 PHE A 126     -11.836  -2.102  24.018  1.00  5.50     0.001 A 
ATOM    123  CD1 PHE A 126     -10.775  -2.544  23.228  1.00 15.29     0.007 A 
ENDBRANCH 117 118
ENDBRANCH 116 117
END_RES PHE A 126
BEGIN_RES TRP A 131
REMARK  2 active torsions:
REMARK  status: ('A' for Active; 'I' for Inactive)
REMARK   39  A    between atoms: CA   and  CB  
REMARK   40  A    between atoms: CB   and  CG  
ROOT
ATOM    124  CA  TRP A 131      -8.096  -3.335  26.542  1.00 14.52     0.181 C 
ENDROOT
BRANCH 124 125
ATOM    125  CB  TRP A 131      -7.651  -1.877  26.607  1.00 13.06     0.075 C 
BRANCH 125 126
ATOM    126  CG  TRP A 131      -8.057  -1.050  25.407  1.00 16.97    -0.028 A 
ATOM    127  CD2 TRP A 131      -9.136  -0.114  25.343  1.00 11.34    -0.002 A 
ATOM    128  CE2 TRP A 131      -9.148   0.430  24.044  1.00  5.87     0.042 A 
ATOM    129  CE3 TRP A 131     -10.098   0.315  26.265  1.00  3.80     0.014 A 
ATOM    130  CZ2 TRP A 131     -10.083   1.386  23.643  1.00  1.35     0.030 A 
ATOM    131  NE1 TRP A 131      -8.123  -0.148  23.347  1.00 13.90    -0.365 N 
ATOM    132  CH2 TRP A 131     -11.014   1.790  24.567  1.00  1.00     0.002 A 
ATOM    133  CZ3 TRP A 131     -11.028   1.260  25.872  1.00  1.00     0.001 A 
ATOM    134  CD1 TRP A 131      -7.471  -1.036  24.171  1.00 17.22     0.096 A 
ATOM    135  H07 TRP A 131      -7.884   0.045  22.385  1.00 13.90     0.165 HD
ENDBRANCH 125 126
ENDBRANCH 124 125
END_RES TRP A 131
BEGIN_RES LEU A 148
REMARK  2 active torsions:
REMARK  status: ('A' for Active; 'I' for Inactive)
REMARK   41  A    between atoms: CA   and  CB  
REMARK   42  A    between atoms: CB   and  CG  
ROOT
ATOM    136  CA  LEU A 148      -9.018   3.259  29.295  1.00 16.99     0.177 C 
ENDROOT
BRANCH 136 137
ATOM    137  CB  LEU A 148      -8.166   2.574  28.236  1.00  6.39     0.038 C 
BRANCH 137 138
ATOM    138  CG  LEU A 148      -7.537   3.364  27.107  1.00  1.00    -0.020 C 
ATOM    139  CD2 LEU A 148      -8.598   4.039  26.289  1.00  1.00     0.009 C 
ATOM    140  CD1 LEU A 148      -6.729   2.407  26.249  1.00  2.71     0.009 C 
ENDBRANCH 137 138
ENDBRANCH 136 137
END_RES LEU A 148
BEGIN_RES THR A 154
REMARK  2 active torsions:
REMARK  status: ('A' for Active; 'I' for Inactive)
REMARK   43  A    between atoms: CA   and  CB  
REMARK   44  A    between atoms: CB   and  OG1 
ROOT
ATOM    141  CA  THR A 154     -15.990   3.959  24.426  1.00 20.45     0.205 C 
ENDROOT
BRANCH 141 142
ATOM    142  CB  THR A 154     -14.777   4.829  24.694  1.00 16.79     0.146 C 
ATOM    143  CG2 THR A 154     -13.680   4.521  23.693  1.00 20.24     0.042 C 
BRANCH 142 144
ATOM    144  OG1 THR A 154     -15.153   6.205  24.559  1.00 18.84    -0.393 OA
ATOM    145  H06 THR A 154     -16.110   6.278  24.565  1.00 18.84     0.210 HD
ENDBRANCH 142 144
ENDBRANCH 141 142
END_RES THR A 154
BEGIN_RES VAL A 158
REMARK  1 active torsions:
REMARK  status: ('A' for Active; 'I' for Inactive)
REMARK   45  A    between atoms: CA   and  CB  
ROOT
ATOM    146  CA  VAL A 158     -15.487  -0.189  19.892  1.00 15.49     0.180 C 
ENDROOT
BRANCH 146 147
ATOM    147  CB  VAL A 158     -14.291  -0.273  20.822  1.00  6.52     0.009 C 
ATOM    148  CG1 VAL A 158     -13.252  -1.228  20.280  1.00  1.00     0.012 C 
ATOM    149  CG2 VAL A 158     -13.714   1.099  20.987  1.00  5.99     0.012 C 
ENDBRANCH 146 147
END_RES VAL A 158
BEGIN_RES LEU A 161
REMARK  2 active torsions:
REMARK  status: ('A' for Active; 'I' for Inactive)
REMARK   46  A    between atoms: CA   and  CB  
REMARK   47  A    between atoms: CB   and  CG  
ROOT
ATOM    150  CA  LEU A 161     -18.031  -1.858  15.935  1.00 13.31     0.177 C 
ENDROOT
BRANCH 150 151
ATOM    151  CB  LEU A 161     -17.046  -0.706  16.001  1.00 14.13     0.038 C 
BRANCH 151 152
ATOM    152  CG  LEU A 161     -17.426   0.552  15.230  1.00 19.39    -0.020 C 
ATOM    153  CD2 LEU A 161     -18.865   0.917  15.503  1.00 27.75     0.009 C 
ATOM    154  CD1 LEU A 161     -17.228   0.300  13.760  1.00 18.59     0.009 C 
ENDBRANCH 151 152
ENDBRANCH 150 151
END_RES LEU A 161
BEGIN_RES GLN A 168
REMARK  3 active torsions:
REMARK  status: ('A' for Active; 'I' for Inactive)
REMARK   48  A    between atoms: CA   and  CB  
REMARK   49  A    between atoms: CB   and  CG  
REMARK   50  A    between atoms: CG   and  CD  
REMARK       I    between atoms: CD   and  NE2 
ROOT
ATOM    155  CA  GLN A 168     -22.035  -6.020   8.155  1.00 30.94     0.177 C 
ENDROOT
BRANCH 155 156
ATOM    156  CB  GLN A 168     -23.054  -5.218   8.946  1.00 41.76     0.044 C 
BRANCH 156 157
ATOM    157  CG  GLN A 168     -24.320  -5.964   9.269  1.00 61.20     0.105 C 
BRANCH 157 158
ATOM    158  CD  GLN A 168     -24.509  -6.136  10.764  1.00 75.49     0.215 C 
ATOM    159  NE2 GLN A 168     -23.685  -6.993  11.368  1.00 85.00    -0.370 N 
ATOM    160  H06 GLN A 168     -23.763  -7.153  12.362  1.00 85.00     0.159 HD
ATOM    161  H07 GLN A 168     -22.983  -7.483  10.831  1.00 85.00     0.159 HD
ATOM    162  OE1 GLN A 168     -25.390  -5.511  11.373  1.00 73.64    -0.274 OA
ENDBRANCH 157 158
ENDBRANCH 156 157
ENDBRANCH 155 156
END_RES GLN A 168
ENDMDL
MODEL 2
REMARK VINA RESULT:      -7.5      1.219      2.835
REMARK  Name = human_CD1d_CTAB_pred.rank_0
REMARK  15 active torsions:
REMARK  status: ('A' for Active; 'I' for Inactive)
REMARK    1  A    between atoms: N_2  and  C_17
REMARK    2  A    between atoms: C_3  and  C_4
REMARK    3  A    between atoms: C_4  and  C_5
REMARK    4  A    between atoms: C_5  and  C_6
REMARK    5  A    between atoms: C_6  and  C_7
REMARK    6  A    between atoms: C_7  and  C_8
REMARK    7  A    between atoms: C_8  and  C_9
REMARK    8  A    between atoms: C_9  and  C_10
REMARK    9  A    between atoms: C_10  and  C_11
REMARK   10  A    between atoms: C_11  and  C_12
REMARK   11  A    between atoms: C_12  and  C_13
REMARK   12  A    between atoms: C_13  and  C_14
REMARK   13  A    between atoms: C_14  and  C_15
REMARK   14  A    between atoms: C_15  and  C_16
REMARK   15  A    between atoms: C_16  and  C_17
REMARK                            x       y       z     vdW  Elec       q    Type
REMARK                         _______ _______ _______ _____ _____    ______ ____
ROOT
ATOM      1  C   UNL     1      -5.322   3.514  22.849  0.00  0.00    +0.000 C 
ENDROOT
BRANCH   1   2
ATOM      2  C   UNL     1      -6.351   4.604  22.894  0.00  0.00    +0.000 C 
BRANCH   2   3
ATOM      3  C   UNL     1      -6.560   5.217  21.522  0.00  0.00    +0.000 C 
BRANCH   3   4
ATOM      4  C   UNL     1      -6.553   4.147  20.452  0.00  0.00    +0.000 C 
BRANCH   4   5
ATOM      5  C   UNL     1      -6.161   4.776  19.096  0.00  0.00    +0.000 C 
BRANCH   5   6
ATOM      6  C   UNL     1      -5.655   6.197  19.282  0.00  0.00    +0.000 C 
BRANCH   6   7
ATOM      7  C   UNL     1      -4.276   6.328  18.637  0.00  0.00    +0.000 C 
BRANCH   7   8
ATOM      8  C   UNL     1      -3.846   7.776  18.592  0.00  0.00    +0.000 C 
BRANCH   8  10
ATOM      9  C   UNL     1      -4.674  10.069  18.175  0.00  0.00    +0.000 C 
ATOM     10  C   UNL     1      -5.029   8.617  18.135  0.00  0.00    +0.000 C 
ENDBRANCH   8  10
ENDBRANCH   7   8
ENDBRANCH   6   7
ENDBRANCH   5   6
ENDBRANCH   4   5
ENDBRANCH   3   4
ENDBRANCH   2   3
ENDBRANCH   1   2
BRANCH   1  11
ATOM     11  C   UNL     1      -4.056   3.939  23.562  0.00  0.00    +0.000 C 
BRANCH  11  12
ATOM     12  C   UNL     1      -2.874   3.815  22.625  0.00  0.00    +0.000 C 
BRANCH  12  13
ATOM     13  C   UNL     1      -2.806   5.036  21.732  0.00  0.00    +0.000 C 
BRANCH  13  14
ATOM     14  C   UNL     1      -2.946   6.296  22.571  0.00  0.00    +0.000 C 
BRANCH  14  15
ATOM     15  C   UNL     1      -1.560   6.738  23.080  0.00  0.00    +0.000 C 
BRANCH  15  16
ATOM     16  C   UNL     1      -1.518   6.722  24.602  0.00  0.00    +0.000 C 
BRANCH  16  17
ATOM     17  N   UNL     1      -0.455   5.823  25.068  0.00  0.00    +0.000 N 
ATOM     18  C   UNL     1       0.380   6.581  25.980  0.00  0.00    +0.000 C 
ATOM     19  C   UNL     1       0.349   5.413  23.942  0.00  0.00    +0.000 C 
ATOM     20  C   UNL     1      -0.992   4.660  25.774  0.00  0.00    +0.000 C 
ENDBRANCH  16  17
ENDBRANCH  15  16
ENDBRANCH  14  15
ENDBRANCH  13  14
ENDBRANCH  12  13
ENDBRANCH  11  12
ENDBRANCH   1  11
TORSDOF 15
BEGIN_RES LEU A  10
REMARK  2 active torsions:
REMARK  status: ('A' for Active; 'I' for Inactive)
REMARK    1  A    between atoms: CA   and  CB  
REMARK    2  A    between atoms: CB   and  CG  
ROOT
ATOM      1  CA  LEU A  10     -10.775  -4.871   5.898  1.00 25.14     0.177 C 
ENDROOT
BRANCH   1   2
ATOM      2  CB  LEU A  10     -12.191  -4.387   6.226  1.00 17.87     0.038 C 
BRANCH   2   3
ATOM      3  CG  LEU A  10     -12.385  -2.873   6.112  1.00 24.95    -0.020 C 
ATOM      4  CD2 LEU A  10     -13.659  -2.494   6.787  1.00 26.38     0.009 C 
ATOM      5  CD1 LEU A  10     -12.398  -2.435   4.658  1.00 28.12     0.009 C 
ENDBRANCH   2   3
ENDBRANCH   1   2
END_RES LEU A  10
BEGIN_RES CYS A  12
REMARK  2 active torsions:
REMARK  status: ('A' for Active; 'I' for Inactive)
REMARK    3  A    between atoms: CA   and  CB  
REMARK    4  A    between atoms: CB   and  SG  
ROOT
ATOM      6  CA  CYS A  12      -8.555   0.470   8.750  1.00 23.16     0.185 C 
ENDROOT
BRANCH   6   7
ATOM      7  CB  CYS A  12      -9.828   0.763   9.555  1.00 20.43     0.105 C 
BRANCH   7   8
ATOM      8  SG  CYS A  12     -11.360   0.944   8.591  1.00 24.64    -0.180 SA
ATOM      9  H04 CYS A  12     -11.637   2.245   8.432  1.00 24.64     0.101 HD
ENDBRANCH   7   8
ENDBRANCH   6   7
END_RES CYS A  12
BEGIN_RES GLN A  14
REMARK  3 active torsions:
REMARK  status: ('A' for Active; 'I' for Inactive)
REMARK    5  A    between atoms: CA   and  CB  
REMARK    6  A    between atoms: CB   and  CG  
REMARK    7  A    between atoms: CG   and  CD  
REMARK       I    between atoms: CD   and  NE2 
ROOT
ATOM     10  CA  GLN A  14      -4.645   5.402  11.377  1.00 10.43     0.177 C 
ENDROOT
BRANCH  10  11
ATOM     11  CB  GLN A  14      -5.541   5.549  12.608  1.00 14.45     0.044 C 
BRANCH  11  12
ATOM     12  CG  GLN A  14      -6.613   6.605  12.469  1.00 13.74     0.105 C 
BRANCH  12  13
ATOM     13  CD  GLN A  14      -6.038   7.992  12.303  1.00 16.29     0.215 C 
ATOM     14  NE2 GLN A  14      -6.627   8.769  11.420  1.00  8.57    -0.370 N 
ATOM     15  H06 GLN A  14      -6.287   9.707  11.267  1.00  8.57     0.159 HD
ATOM     16  H07 GLN A  14      -7.418   8.427  10.894  1.00  8.57     0.159 HD
ATOM     17  OE1 GLN A  14      -5.080   8.360  12.964  1.00 23.55    -0.274 OA
ENDBRANCH  12  13
ENDBRANCH  11  12
ENDBRANCH  10  11
END_RES GLN A  14
BEGIN_RES SER A  16
REMARK  2 active torsions:
REMARK  status: ('A' for Active; 'I' for Inactive)
REMARK    8  A    between atoms: CA   and  CB  
REMARK    9  A    between atoms: CB   and  OG  
ROOT
ATOM     18  CA  SER A  16      -1.305  10.019  14.282  1.00  2.34     0.200 C 
ENDROOT
BRANCH  18  19
ATOM     19  CB  SER A  16      -2.242   9.935  15.479  1.00  3.12     0.199 C 
BRANCH  19  20
ATOM     20  OG  SER A  16      -3.460   9.313  15.109  1.00  1.00    -0.398 OA
ATOM     21  H04 SER A  16      -4.040   9.962  14.703  1.00  1.00     0.209 HD
ENDBRANCH  19  20
ENDBRANCH  18  19
END_RES SER A  16
BEGIN_RES LEU A  32
REMARK  2 active torsions:
REMARK  status: ('A' for Active; 'I' for Inactive)
REMARK   10  A    between atoms: CA   and  CB  
REMARK   11  A    between atoms: CB   and  CG  
ROOT
ATOM     22  CA  LEU A  32     -10.272  -4.106   1.587  1.00 16.16     0.177 C 
ENDROOT
BRANCH  22  23
ATOM     23  CB  LEU A  32     -11.613  -3.858   0.880  1.00 12.35     0.038 C 
BRANCH  23  24
ATOM     24  CG  LEU A  32     -12.580  -5.048   1.049  1.00  9.77    -0.020 C 
ATOM     25  CD1 LEU A  32     -13.027  -5.161   2.488  1.00  4.35     0.009 C 
ATOM     26  CD2 LEU A  32     -13.782  -4.894   0.155  1.00 10.60     0.009 C 
ENDBRANCH  23  24
ENDBRANCH  22  23
END_RES LEU A  32
BEGIN_RES HIS A  38
REMARK  2 active torsions:
REMARK  status: ('A' for Active; 'I' for Inactive)
REMARK   12  A    between atoms: CA   and  CB  
REMARK   13  A    between atoms: CB   and  CG  
ROOT
ATOM     27  CA  HIS A  38     -10.959   4.941   1.621  1.00 16.94     0.182 C 
ENDROOT
BRANCH  27  28
ATOM     28  CB  HIS A  38     -11.810   4.840   2.881  1.00 15.47     0.095 C 
BRANCH  28  29
ATOM     29  CG  HIS A  38     -13.001   3.949   2.735  1.00 18.62     0.053 A 
ATOM     30  CD2 HIS A  38     -14.162   4.122   2.059  1.00 15.06     0.116 A 
ATOM     31  NE2 HIS A  38     -14.901   2.980   2.232  1.00 18.12    -0.359 N 
ATOM     32  CE1 HIS A  38     -14.222   2.137   2.986  1.00 14.78     0.207 A 
ATOM     33  H06 HIS A  38     -15.819   2.811   1.845  1.00 18.12     0.166 HD
ATOM     34  ND1 HIS A  38     -13.072   2.697   3.305  1.00 16.58    -0.247 NA
ENDBRANCH  28  29
ENDBRANCH  27  28
END_RES HIS A  38
BEGIN_RES TRP A  63
REMARK  2 active torsions:
REMARK  status: ('A' for Active; 'I' for Inactive)
REMARK   14  A    between atoms: CA   and  CB  
REMARK   15  A    between atoms: CB   and  CG  
ROOT
ATOM     35  CA  TRP A  63     -22.437   6.257   6.543  1.00 27.04     0.181 C 
ENDROOT
BRANCH  35  36
ATOM     36  CB  TRP A  63     -22.360   6.642   5.068  1.00 31.37     0.075 C 
BRANCH  36  37
ATOM     37  CG  TRP A  63     -20.953   6.765   4.523  1.00 34.37    -0.028 A 
ATOM     38  CD2 TRP A  63     -19.893   5.805   4.632  1.00 33.79    -0.002 A 
ATOM     39  CE3 TRP A  63     -19.765   4.565   5.262  1.00 32.99     0.014 A 
ATOM     40  CE2 TRP A  63     -18.790   6.318   3.913  1.00 35.84     0.042 A 
ATOM     41  CZ3 TRP A  63     -18.560   3.886   5.159  1.00 32.93     0.001 A 
ATOM     42  CH2 TRP A  63     -17.481   4.422   4.438  1.00 39.24     0.002 A 
ATOM     43  CZ2 TRP A  63     -17.578   5.635   3.808  1.00 37.99     0.030 A 
ATOM     44  NE1 TRP A  63     -19.167   7.528   3.398  1.00 37.98    -0.365 N 
ATOM     45  H06 TRP A  63     -18.585   8.133   2.835  1.00 37.98     0.165 HD
ATOM     46  CD1 TRP A  63     -20.463   7.787   3.771  1.00 38.16     0.096 A 
ENDBRANCH  36  37
ENDBRANCH  35  36
END_RES TRP A  63
BEGIN_RES LEU A  66
REMARK  2 active torsions:
REMARK  status: ('A' for Active; 'I' for Inactive)
REMARK   16  A    between atoms: CA   and  CB  
REMARK   17  A    between atoms: CB   and  CG  
ROOT
ATOM     47  CA  LEU A  66     -20.004   6.489  11.120  1.00 10.90     0.177 C 
ENDROOT
BRANCH  47  48
ATOM     48  CB  LEU A  66     -19.626   5.453  10.069  1.00 13.57     0.038 C 
BRANCH  48  49
ATOM     49  CG  LEU A  66     -19.384   4.023  10.551  1.00  8.73    -0.020 C 
ATOM     50  CD1 LEU A  66     -19.261   3.983  12.052  1.00 14.23     0.009 C 
ATOM     51  CD2 LEU A  66     -20.540   3.166  10.104  1.00  1.92     0.009 C 
ENDBRANCH  48  49
ENDBRANCH  47  48
END_RES LEU A  66
BEGIN_RES PHE A  70
REMARK  2 active torsions:
REMARK  status: ('A' for Active; 'I' for Inactive)
REMARK   18  A    between atoms: CA   and  CB  
REMARK   19  A    between atoms: CB   and  CG  
ROOT
ATOM     52  CA  PHE A  70     -14.974   9.434  13.165  1.00  8.78     0.180 C 
ENDROOT
BRANCH  52  53
ATOM     53  CB  PHE A  70     -14.707   9.132  11.681  1.00  6.33     0.073 C 
BRANCH  53  54
ATOM     54  CG  PHE A  70     -13.964   7.843  11.457  1.00  3.42    -0.056 A 
ATOM     55  CD1 PHE A  70     -13.468   7.109  12.523  1.00 13.88     0.007 A 
ATOM     56  CE1 PHE A  70     -12.734   5.930  12.305  1.00 12.71     0.001 A 
ATOM     57  CZ  PHE A  70     -12.495   5.482  11.005  1.00  4.21     0.000 A 
ATOM     58  CE2 PHE A  70     -12.987   6.205   9.934  1.00  2.83     0.001 A 
ATOM     59  CD2 PHE A  70     -13.719   7.382  10.163  1.00  1.00     0.007 A 
ENDBRANCH  53  54
ENDBRANCH  52  53
END_RES PHE A  70
BEGIN_RES TYR A  73
REMARK  3 active torsions:
REMARK  status: ('A' for Active; 'I' for Inactive)
REMARK   20  A    between atoms: CA   and  CB  
REMARK   21  A    between atoms: CB   and  CG  
REMARK   22  A    between atoms: CZ   and  OH  
ROOT
ATOM     60  CA  TYR A  73     -13.212  10.166  17.260  1.00 12.17     0.180 C 
ENDROOT
BRANCH  60  61
ATOM     61  CB  TYR A  73     -13.301   8.846  16.517  1.00 12.84     0.073 C 
BRANCH  61  62
ATOM     62  CG  TYR A  73     -13.317   7.666  17.424  1.00 15.89    -0.056 A 
ATOM     63  CD1 TYR A  73     -13.276   7.820  18.792  1.00 16.00     0.010 A 
ATOM     64  CE1 TYR A  73     -13.260   6.715  19.643  1.00 13.55     0.037 A 
ATOM     65  CZ  TYR A  73     -13.284   5.444  19.103  1.00 18.13     0.065 A 
ATOM     66  CE2 TYR A  73     -13.327   5.263  17.740  1.00 15.89     0.037 A 
ATOM     67  CD2 TYR A  73     -13.343   6.375  16.908  1.00 21.86     0.010 A 
BRANCH  65  68
ATOM     68  OH  TYR A  73     -13.275   4.342  19.922  1.00 12.12    -0.361 OA
ATOM     69  H08 TYR A  73     -13.479   3.558  19.407  1.00 12.12     0.217 HD
ENDBRANCH  65  68
ENDBRANCH  61  62
ENDBRANCH  60  61
END_RES TYR A  73
BEGIN_RES PHE A  77
REMARK  2 active torsions:
REMARK  status: ('A' for Active; 'I' for Inactive)
REMARK   23  A    between atoms: CA   and  CB  
REMARK   24  A    between atoms: CB   and  CG  
ROOT
ATOM     70  CA  PHE A  77      -8.400  10.581  20.110  1.00 17.17     0.180 C 
ENDROOT
BRANCH  70  71
ATOM     71  CB  PHE A  77      -8.228   9.750  18.851  1.00 10.44     0.073 C 
BRANCH  71  72
ATOM     72  CG  PHE A  77      -8.759   8.356  18.971  1.00  6.07    -0.056 A 
ATOM     73  CD2 PHE A  77      -9.088   7.837  20.203  1.00  9.61     0.007 A 
ATOM     74  CE2 PHE A  77      -9.584   6.544  20.324  1.00  1.00     0.001 A 
ATOM     75  CZ  PHE A  77      -9.755   5.761  19.195  1.00  1.92     0.000 A 
ATOM     76  CE1 PHE A  77      -9.433   6.266  17.955  1.00  9.25     0.001 A 
ATOM     77  CD1 PHE A  77      -8.935   7.564  17.848  1.00  9.63     0.007 A 
ENDBRANCH  71  72
ENDBRANCH  70  71
END_RES PHE A  77
BEGIN_RES LEU A  96
REMARK  2 active torsions:
REMARK  status: ('A' for Active; 'I' for Inactive)
REMARK   25  A    between atoms: CA   and  CB  
REMARK   26  A    between atoms: CB   and  CG  
ROOT
ATOM     78  CA  LEU A  96       0.717   6.481  17.359  1.00 16.08     0.177 C 
ENDROOT
BRANCH  78  79
ATOM     79  CB  LEU A  96      -0.370   7.101  18.230  1.00 18.83     0.038 C 
BRANCH  79  80
ATOM     80  CG  LEU A  96      -0.182   6.883  19.731  1.00 19.03    -0.020 C 
ATOM     81  CD1 LEU A  96       0.417   5.514  19.954  1.00 28.17     0.009 C 
ATOM     82  CD2 LEU A  96       0.763   7.917  20.299  1.00 22.01     0.009 C 
ENDBRANCH  79  80
ENDBRANCH  78  79
END_RES LEU A  96
BEGIN_RES VAL A  98
REMARK  1 active torsions:
REMARK  status: ('A' for Active; 'I' for Inactive)
REMARK   27  A    between atoms: CA   and  CB  
ROOT
ATOM     83  CA  VAL A  98      -3.928   2.082  14.897  1.00 19.83     0.180 C 
ENDROOT
BRANCH  83  84
ATOM     84  CB  VAL A  98      -5.203   2.807  15.281  1.00 17.87     0.009 C 
ATOM     85  CG2 VAL A  98      -4.911   4.261  15.548  1.00 29.90     0.012 C 
ATOM     86  CG1 VAL A  98      -5.812   2.149  16.501  1.00 14.79     0.012 C 
ENDBRANCH  83  84
END_RES VAL A  98
BEGIN_RES ASN A 112
REMARK  2 active torsions:
REMARK  status: ('A' for Active; 'I' for Inactive)
REMARK   28  A    between atoms: CA   and  CB  
REMARK   29  A    between atoms: CB   and  CG  
REMARK       I    between atoms: CG   and  ND2 
ROOT
ATOM     87  CA  ASN A 112     -11.790  -8.793  14.069  1.00 37.70     0.185 C 
ENDROOT
BRANCH  87  88
ATOM     88  CB  ASN A 112     -12.992  -7.945  14.465  1.00 26.24     0.137 C 
BRANCH  88  89
ATOM     89  CG  ASN A 112     -13.819  -8.568  15.567  1.00 21.77     0.217 C 
ATOM     90  ND2 ASN A 112     -14.968  -9.132  15.193  1.00  9.31    -0.370 N 
ATOM     91  H04 ASN A 112     -15.566  -9.564  15.883  1.00  9.31     0.159 HD
ATOM     92  H05 ASN A 112     -15.239  -9.128  14.220  1.00  9.31     0.159 HD
ATOM     93  OD1 ASN A 112     -13.437  -8.540  16.743  1.00 21.61    -0.274 OA
ENDBRANCH  88  89
ENDBRANCH  87  88
END_RES ASN A 112
BEGIN_RES PHE A 114
REMARK  2 active torsions:
REMARK  status: ('A' for Active; 'I' for Inactive)
REMARK   30  A    between atoms: CA   and  CB  
REMARK   31  A    between atoms: CB   and  CG  
ROOT
ATOM     94  CA  PHE A 114      -7.754  -3.619  17.012  1.00 26.06     0.180 C 
ENDROOT
BRANCH  94  95
ATOM     95  CB  PHE A 114      -8.890  -3.080  17.867  1.00 19.95     0.073 C 
BRANCH  95  96
ATOM     96  CG  PHE A 114      -9.222  -1.652  17.579  1.00 17.65    -0.056 A 
ATOM     97  CD1 PHE A 114      -8.217  -0.694  17.472  1.00 13.01     0.007 A 
ATOM     98  CE1 PHE A 114      -8.526   0.638  17.233  1.00  6.74     0.001 A 
ATOM     99  CZ  PHE A 114      -9.854   1.032  17.095  1.00  6.27     0.000 A 
ATOM    100  CE2 PHE A 114     -10.862   0.088  17.199  1.00 17.36     0.001 A 
ATOM    101  CD2 PHE A 114     -10.544  -1.253  17.440  1.00 18.39     0.007 A 
ENDBRANCH  95  96
ENDBRANCH  94  95
END_RES PHE A 114
BEGIN_RES VAL A 116
REMARK  1 active torsions:
REMARK  status: ('A' for Active; 'I' for Inactive)
REMARK   32  A    between atoms: CA   and  CB  
ROOT
ATOM    102  CA  VAL A 116      -2.467   0.283  18.565  1.00 13.48     0.180 C 
ENDROOT
BRANCH 102 103
ATOM    103  CB  VAL A 116      -3.101   1.238  19.599  1.00 20.86     0.009 C 
ATOM    104  CG1 VAL A 116      -3.087   2.668  19.051  1.00 25.01     0.012 C 
ATOM    105  CG2 VAL A 116      -4.500   0.793  19.956  1.00 25.34     0.012 C 
ENDBRANCH 102 103
END_RES VAL A 116
BEGIN_RES ILE A 123
REMARK  2 active torsions:
REMARK  status: ('A' for Active; 'I' for Inactive)
REMARK   33  A    between atoms: CA   and  CB  
REMARK   34  A    between atoms: CB   and  CG1 
ROOT
ATOM    106  CA  ILE A 123       1.557  -1.626  23.222  1.00 15.07     0.180 C 
ENDROOT
BRANCH 106 107
ATOM    107  CB  ILE A 123       1.697  -0.112  23.461  1.00 14.41     0.013 C 
ATOM    108  CG2 ILE A 123       3.104   0.209  23.935  1.00 18.35     0.012 C 
BRANCH 107 109
ATOM    109  CG1 ILE A 123       1.383   0.658  22.181  1.00 15.23     0.002 C 
ATOM    110  CD1 ILE A 123       0.235   1.628  22.324  1.00 14.67     0.005 C 
ENDBRANCH 107 109
ENDBRANCH 106 107
END_RES ILE A 123
BEGIN_RES LEU A 124
REMARK  2 active torsions:
REMARK  status: ('A' for Active; 'I' for Inactive)
REMARK   35  A    between atoms: CA   and  CB  
REMARK   36  A    between atoms: CB   and  CG  
ROOT
ATOM    111  CA  LEU A 124      -2.057  -2.686  23.524  1.00 11.86     0.177 C 
ENDROOT
BRANCH 111 112
ATOM    112  CB  LEU A 124      -2.698  -1.652  24.429  1.00 14.60     0.038 C 
BRANCH 112 113
ATOM    113  CG  LEU A 124      -2.651  -0.256  23.825  1.00 16.19    -0.020 C 
ATOM    114  CD1 LEU A 124      -4.080   0.174  23.444  1.00 22.07     0.009 C 
ATOM    115  CD2 LEU A 124      -2.020   0.696  24.810  1.00  9.12     0.009 C 
ENDBRANCH 112 113
ENDBRANCH 111 112
END_RES LEU A 124
BEGIN_RES PHE A 126
REMARK  2 active torsions:
REMARK  status: ('A' for Active; 'I' for Inactive)
REMARK   37  A    between atoms: CA   and  CB  
REMARK   38  A    between atoms: CB   and  CG  
ROOT
ATOM    116  CA  PHE A 126      -8.784  -4.792  22.233  1.00 23.15     0.180 C 
ENDROOT
BRANCH 116 117
ATOM    117  CB  PHE A 126      -9.823  -4.011  21.461  1.00 20.65     0.073 C 
BRANCH 117 118
ATOM    118  CG  PHE A 126     -10.952  -3.547  22.296  1.00 23.65    -0.056 A 
ATOM    119  CD2 PHE A 126     -10.771  -2.547  23.235  1.00 36.63     0.007 A 
ATOM    120  CE2 PHE A 126     -11.843  -2.107  24.024  1.00 36.27     0.001 A 
ATOM    121  CZ  PHE A 126     -13.097  -2.677  23.867  1.00 18.06     0.000 A 
ATOM    122  CE1 PHE A 126     -13.282  -3.674  22.930  1.00  5.50     0.001 A 
ATOM    123  CD1 PHE A 126     -12.211  -4.104  22.146  1.00 15.29     0.007 A 
ENDBRANCH 117 118
ENDBRANCH 116 117
END_RES PHE A 126
BEGIN_RES TRP A 131
REMARK  2 active torsions:
REMARK  status: ('A' for Active; 'I' for Inactive)
REMARK   39  A    between atoms: CA   and  CB  
REMARK   40  A    between atoms: CB   and  CG  
ROOT
ATOM    124  CA  TRP A 131      -8.096  -3.335  26.542  1.00 14.52     0.181 C 
ENDROOT
BRANCH 124 125
ATOM    125  CB  TRP A 131      -7.651  -1.877  26.607  1.00 13.06     0.075 C 
BRANCH 125 126
ATOM    126  CG  TRP A 131      -8.050  -1.051  25.404  1.00 16.97    -0.028 A 
ATOM    127  CD2 TRP A 131      -9.135  -0.123  25.330  1.00 11.34    -0.002 A 
ATOM    128  CE2 TRP A 131      -9.138   0.422  24.031  1.00  5.87     0.042 A 
ATOM    129  CE3 TRP A 131     -10.109   0.300  26.242  1.00  3.80     0.014 A 
ATOM    130  CZ2 TRP A 131     -10.075   1.372  23.621  1.00  1.35     0.030 A 
ATOM    131  NE1 TRP A 131      -8.102  -0.149  23.343  1.00 13.90    -0.365 N 
ATOM    132  CH2 TRP A 131     -11.018   1.769  24.537  1.00  1.00     0.002 A 
ATOM    133  CZ3 TRP A 131     -11.041   1.239  25.841  1.00  1.00     0.001 A 
ATOM    134  CD1 TRP A 131      -7.453  -1.033  24.173  1.00 17.22     0.096 A 
ATOM    135  H07 TRP A 131      -7.855   0.046  22.384  1.00 13.90     0.165 HD
ENDBRANCH 125 126
ENDBRANCH 124 125
END_RES TRP A 131
BEGIN_RES LEU A 148
REMARK  2 active torsions:
REMARK  status: ('A' for Active; 'I' for Inactive)
REMARK   41  A    between atoms: CA   and  CB  
REMARK   42  A    between atoms: CB   and  CG  
ROOT
ATOM    136  CA  LEU A 148      -9.018   3.259  29.295  1.00 16.99     0.177 C 
ENDROOT
BRANCH 136 137
ATOM    137  CB  LEU A 148      -8.166   2.574  28.236  1.00  6.39     0.038 C 
BRANCH 137 138
ATOM    138  CG  LEU A 148      -8.006   3.172  26.853  1.00  1.00    -0.020 C 
ATOM    139  CD2 LEU A 148      -6.819   2.571  26.160  1.00  1.00     0.009 C 
ATOM    140  CD1 LEU A 148      -7.835   4.673  27.001  1.00  2.71     0.009 C 
ENDBRANCH 137 138
ENDBRANCH 136 137
END_RES LEU A 148
BEGIN_RES THR A 154
REMARK  2 active torsions:
REMARK  status: ('A' for Active; 'I' for Inactive)
REMARK   43  A    between atoms: CA   and  CB  
REMARK   44  A    between atoms: CB   and  OG1 
ROOT
ATOM    141  CA  THR A 154     -15.990   3.959  24.426  1.00 20.45     0.205 C 
ENDROOT
BRANCH 141 142
ATOM    142  CB  THR A 154     -14.777   4.829  24.694  1.00 16.79     0.146 C 
ATOM    143  CG2 THR A 154     -13.675   4.511  23.702  1.00 20.24     0.042 C 
BRANCH 142 144
ATOM    144  OG1 THR A 154     -15.150   6.205  24.546  1.00 18.84    -0.393 OA
ATOM    145  H06 THR A 154     -16.107   6.280  24.553  1.00 18.84     0.210 HD
ENDBRANCH 142 144
ENDBRANCH 141 142
END_RES THR A 154
BEGIN_RES VAL A 158
REMARK  1 active torsions:
REMARK  status: ('A' for Active; 'I' for Inactive)
REMARK   45  A    between atoms: CA   and  CB  
ROOT
ATOM    146  CA  VAL A 158     -15.487  -0.189  19.892  1.00 15.49     0.180 C 
ENDROOT
BRANCH 146 147
ATOM    147  CB  VAL A 158     -14.291  -0.273  20.822  1.00  6.52     0.009 C 
ATOM    148  CG1 VAL A 158     -13.240  -1.205  20.265  1.00  1.00     0.012 C 
ATOM    149  CG2 VAL A 158     -13.732   1.103  21.010  1.00  5.99     0.012 C 
ENDBRANCH 146 147
END_RES VAL A 158
BEGIN_RES LEU A 161
REMARK  2 active torsions:
REMARK  status: ('A' for Active; 'I' for Inactive)
REMARK   46  A    between atoms: CA   and  CB  
REMARK   47  A    between atoms: CB   and  CG  
ROOT
ATOM    150  CA  LEU A 161     -18.031  -1.858  15.935  1.00 13.31     0.177 C 
ENDROOT
BRANCH 150 151
ATOM    151  CB  LEU A 161     -17.046  -0.706  16.001  1.00 14.13     0.038 C 
BRANCH 151 152
ATOM    152  CG  LEU A 161     -17.427   0.552  15.231  1.00 19.39    -0.020 C 
ATOM    153  CD2 LEU A 161     -18.864   0.920  15.509  1.00 27.75     0.009 C 
ATOM    154  CD1 LEU A 161     -17.235   0.300  13.760  1.00 18.59     0.009 C 
ENDBRANCH 151 152
ENDBRANCH 150 151
END_RES LEU A 161
BEGIN_RES GLN A 168
REMARK  3 active torsions:
REMARK  status: ('A' for Active; 'I' for Inactive)
REMARK   48  A    between atoms: CA   and  CB  
REMARK   49  A    between atoms: CB   and  CG  
REMARK   50  A    between atoms: CG   and  CD  
REMARK       I    between atoms: CD   and  NE2 
ROOT
ATOM    155  CA  GLN A 168     -22.035  -6.020   8.155  1.00 30.94     0.177 C 
ENDROOT
BRANCH 155 156
ATOM    156  CB  GLN A 168     -23.054  -5.218   8.946  1.00 41.76     0.044 C 
BRANCH 156 157
ATOM    157  CG  GLN A 168     -24.428  -5.829   8.994  1.00 61.20     0.105 C 
BRANCH 157 158
ATOM    158  CD  GLN A 168     -24.907  -6.034  10.418  1.00 75.49     0.215 C 
ATOM    159  NE2 GLN A 168     -24.001  -5.841  11.378  1.00 85.00    -0.370 N 
ATOM    160  H06 GLN A 168     -24.258  -5.964  12.347  1.00 85.00     0.159 HD
ATOM    161  H07 GLN A 168     -23.058  -5.571  11.136  1.00 85.00     0.159 HD
ATOM    162  OE1 GLN A 168     -26.076  -6.368  10.657  1.00 73.64    -0.274 OA
ENDBRANCH 157 158
ENDBRANCH 156 157
ENDBRANCH 155 156
END_RES GLN A 168
ENDMDL
MODEL 3
REMARK VINA RESULT:      -7.4      1.088      2.511
REMARK  Name = human_CD1d_CTAB_pred.rank_0
REMARK  15 active torsions:
REMARK  status: ('A' for Active; 'I' for Inactive)
REMARK    1  A    between atoms: N_2  and  C_17
REMARK    2  A    between atoms: C_3  and  C_4
REMARK    3  A    between atoms: C_4  and  C_5
REMARK    4  A    between atoms: C_5  and  C_6
REMARK    5  A    between atoms: C_6  and  C_7
REMARK    6  A    between atoms: C_7  and  C_8
REMARK    7  A    between atoms: C_8  and  C_9
REMARK    8  A    between atoms: C_9  and  C_10
REMARK    9  A    between atoms: C_10  and  C_11
REMARK   10  A    between atoms: C_11  and  C_12
REMARK   11  A    between atoms: C_12  and  C_13
REMARK   12  A    between atoms: C_13  and  C_14
REMARK   13  A    between atoms: C_14  and  C_15
REMARK   14  A    between atoms: C_15  and  C_16
REMARK   15  A    between atoms: C_16  and  C_17
REMARK                            x       y       z     vdW  Elec       q    Type
REMARK                         _______ _______ _______ _____ _____    ______ ____
ROOT
ATOM      1  C   UNL     1      -6.791   3.561  23.167  0.00  0.00    +0.000 C 
ENDROOT
BRANCH   1   2
ATOM      2  C   UNL     1      -6.385   3.368  21.736  0.00  0.00    +0.000 C 
BRANCH   2   3
ATOM      3  C   UNL     1      -7.474   2.665  20.948  0.00  0.00    +0.000 C 
BRANCH   3   4
ATOM      4  C   UNL     1      -7.736   3.381  19.641  0.00  0.00    +0.000 C 
BRANCH   4   5
ATOM      5  C   UNL     1      -9.170   3.957  19.646  0.00  0.00    +0.000 C 
BRANCH   5   6
ATOM      6  C   UNL     1      -9.332   5.024  18.575  0.00  0.00    +0.000 C 
BRANCH   6   7
ATOM      7  C   UNL     1      -8.223   4.866  17.537  0.00  0.00    +0.000 C 
BRANCH   7   8
ATOM      8  C   UNL     1      -8.343   5.927  16.467  0.00  0.00    +0.000 C 
BRANCH   8  10
ATOM      9  C   UNL     1      -9.639   7.928  15.809  0.00  0.00    +0.000 C 
ATOM     10  C   UNL     1      -9.552   6.796  16.782  0.00  0.00    +0.000 C 
ENDBRANCH   8  10
ENDBRANCH   7   8
ENDBRANCH   6   7
ENDBRANCH   5   6
ENDBRANCH   4   5
ENDBRANCH   3   4
ENDBRANCH   2   3
ENDBRANCH   1   2
BRANCH   1  11
ATOM     11  C   UNL     1      -7.972   4.505  23.268  0.00  0.00    +0.000 C 
BRANCH  11  12
ATOM     12  C   UNL     1      -7.480   5.934  23.326  0.00  0.00    +0.000 C 
BRANCH  12  13
ATOM     13  C   UNL     1      -6.334   6.036  24.309  0.00  0.00    +0.000 C 
BRANCH  13  14
ATOM     14  C   UNL     1      -5.281   6.994  23.775  0.00  0.00    +0.000 C 
BRANCH  14  15
ATOM     15  C   UNL     1      -4.167   6.200  23.066  0.00  0.00    +0.000 C 
BRANCH  15  16
ATOM     16  C   UNL     1      -2.875   6.253  23.870  0.00  0.00    +0.000 C 
BRANCH  16  17
ATOM     17  N   UNL     1      -2.365   4.895  24.098  0.00  0.00    +0.000 N 
ATOM     18  C   UNL     1      -0.935   4.926  23.855  0.00  0.00    +0.000 C 
ATOM     19  C   UNL     1      -2.974   3.993  23.150  0.00  0.00    +0.000 C 
ATOM     20  C   UNL     1      -2.602   4.445  25.469  0.00  0.00    +0.000 C 
ENDBRANCH  16  17
ENDBRANCH  15  16
ENDBRANCH  14  15
ENDBRANCH  13  14
ENDBRANCH  12  13
ENDBRANCH  11  12
ENDBRANCH   1  11
TORSDOF 15
BEGIN_RES LEU A  10
REMARK  2 active torsions:
REMARK  status: ('A' for Active; 'I' for Inactive)
REMARK    1  A    between atoms: CA   and  CB  
REMARK    2  A    between atoms: CB   and  CG  
ROOT
ATOM      1  CA  LEU A  10     -10.775  -4.871   5.898  1.00 25.14     0.177 C 
ENDROOT
BRANCH   1   2
ATOM      2  CB  LEU A  10     -12.191  -4.387   6.226  1.00 17.87     0.038 C 
BRANCH   2   3
ATOM      3  CG  LEU A  10     -12.387  -2.875   6.103  1.00 24.95    -0.020 C 
ATOM      4  CD2 LEU A  10     -13.665  -2.494   6.771  1.00 26.38     0.009 C 
ATOM      5  CD1 LEU A  10     -12.395  -2.444   4.646  1.00 28.12     0.009 C 
ENDBRANCH   2   3
ENDBRANCH   1   2
END_RES LEU A  10
BEGIN_RES CYS A  12
REMARK  2 active torsions:
REMARK  status: ('A' for Active; 'I' for Inactive)
REMARK    3  A    between atoms: CA   and  CB  
REMARK    4  A    between atoms: CB   and  SG  
ROOT
ATOM      6  CA  CYS A  12      -8.555   0.470   8.750  1.00 23.16     0.185 C 
ENDROOT
BRANCH   6   7
ATOM      7  CB  CYS A  12      -9.828   0.763   9.555  1.00 20.43     0.105 C 
BRANCH   7   8
ATOM      8  SG  CYS A  12     -11.382   0.797   8.610  1.00 24.64    -0.180 SA
ATOM      9  H04 CYS A  12     -12.416   0.618   9.442  1.00 24.64     0.101 HD
ENDBRANCH   7   8
ENDBRANCH   6   7
END_RES CYS A  12
BEGIN_RES GLN A  14
REMARK  3 active torsions:
REMARK  status: ('A' for Active; 'I' for Inactive)
REMARK    5  A    between atoms: CA   and  CB  
REMARK    6  A    between atoms: CB   and  CG  
REMARK    7  A    between atoms: CG   and  CD  
REMARK       I    between atoms: CD   and  NE2 
ROOT
ATOM     10  CA  GLN A  14      -4.645   5.402  11.377  1.00 10.43     0.177 C 
ENDROOT
BRANCH  10  11
ATOM     11  CB  GLN A  14      -5.541   5.549  12.608  1.00 14.45     0.044 C 
BRANCH  11  12
ATOM     12  CG  GLN A  14      -6.483   6.729  12.548  1.00 13.74     0.105 C 
BRANCH  12  13
ATOM     13  CD  GLN A  14      -5.879   7.980  13.141  1.00 16.29     0.215 C 
ATOM     14  NE2 GLN A  14      -6.306   8.327  14.336  1.00  8.57    -0.370 N 
ATOM     15  H06 GLN A  14      -5.937   9.154  14.784  1.00  8.57     0.159 HD
ATOM     16  H07 GLN A  14      -7.002   7.766  14.807  1.00  8.57     0.159 HD
ATOM     17  OE1 GLN A  14      -5.038   8.623  12.533  1.00 23.55    -0.274 OA
ENDBRANCH  12  13
ENDBRANCH  11  12
ENDBRANCH  10  11
END_RES GLN A  14
BEGIN_RES SER A  16
REMARK  2 active torsions:
REMARK  status: ('A' for Active; 'I' for Inactive)
REMARK    8  A    between atoms: CA   and  CB  
REMARK    9  A    between atoms: CB   and  OG  
ROOT
ATOM     18  CA  SER A  16      -1.305  10.019  14.282  1.00  2.34     0.200 C 
ENDROOT
BRANCH  18  19
ATOM     19  CB  SER A  16      -2.242   9.935  15.479  1.00  3.12     0.199 C 
BRANCH  19  20
ATOM     20  OG  SER A  16      -3.474   9.348  15.100  1.00  1.00    -0.398 OA
ATOM     21  H04 SER A  16      -3.331   8.751  14.362  1.00  1.00     0.209 HD
ENDBRANCH  19  20
ENDBRANCH  18  19
END_RES SER A  16
BEGIN_RES LEU A  32
REMARK  2 active torsions:
REMARK  status: ('A' for Active; 'I' for Inactive)
REMARK   10  A    between atoms: CA   and  CB  
REMARK   11  A    between atoms: CB   and  CG  
ROOT
ATOM     22  CA  LEU A  32     -10.272  -4.106   1.587  1.00 16.16     0.177 C 
ENDROOT
BRANCH  22  23
ATOM     23  CB  LEU A  32     -11.613  -3.858   0.880  1.00 12.35     0.038 C 
BRANCH  23  24
ATOM     24  CG  LEU A  32     -12.584  -5.043   1.059  1.00  9.77    -0.020 C 
ATOM     25  CD1 LEU A  32     -13.017  -5.154   2.502  1.00  4.35     0.009 C 
ATOM     26  CD2 LEU A  32     -13.794  -4.883   0.177  1.00 10.60     0.009 C 
ENDBRANCH  23  24
ENDBRANCH  22  23
END_RES LEU A  32
BEGIN_RES HIS A  38
REMARK  2 active torsions:
REMARK  status: ('A' for Active; 'I' for Inactive)
REMARK   12  A    between atoms: CA   and  CB  
REMARK   13  A    between atoms: CB   and  CG  
ROOT
ATOM     27  CA  HIS A  38     -10.959   4.941   1.621  1.00 16.94     0.182 C 
ENDROOT
BRANCH  27  28
ATOM     28  CB  HIS A  38     -11.810   4.840   2.881  1.00 15.47     0.095 C 
BRANCH  28  29
ATOM     29  CG  HIS A  38     -13.002   3.951   2.735  1.00 18.62     0.053 A 
ATOM     30  CD2 HIS A  38     -14.163   4.126   2.059  1.00 15.06     0.116 A 
ATOM     31  NE2 HIS A  38     -14.904   2.984   2.231  1.00 18.12    -0.359 N 
ATOM     32  CE1 HIS A  38     -14.226   2.140   2.984  1.00 14.78     0.207 A 
ATOM     33  H06 HIS A  38     -15.822   2.817   1.844  1.00 18.12     0.166 HD
ATOM     34  ND1 HIS A  38     -13.075   2.698   3.303  1.00 16.58    -0.247 NA
ENDBRANCH  28  29
ENDBRANCH  27  28
END_RES HIS A  38
BEGIN_RES TRP A  63
REMARK  2 active torsions:
REMARK  status: ('A' for Active; 'I' for Inactive)
REMARK   14  A    between atoms: CA   and  CB  
REMARK   15  A    between atoms: CB   and  CG  
ROOT
ATOM     35  CA  TRP A  63     -22.437   6.257   6.543  1.00 27.04     0.181 C 
ENDROOT
BRANCH  35  36
ATOM     36  CB  TRP A  63     -22.360   6.642   5.068  1.00 31.37     0.075 C 
BRANCH  36  37
ATOM     37  CG  TRP A  63     -20.953   6.795   4.530  1.00 34.37    -0.028 A 
ATOM     38  CD2 TRP A  63     -19.883   5.843   4.614  1.00 33.79    -0.002 A 
ATOM     39  CE3 TRP A  63     -19.745   4.586   5.208  1.00 32.99     0.014 A 
ATOM     40  CE2 TRP A  63     -18.784   6.387   3.914  1.00 35.84     0.042 A 
ATOM     41  CZ3 TRP A  63     -18.533   3.922   5.089  1.00 32.93     0.001 A 
ATOM     42  CH2 TRP A  63     -17.458   4.490   4.387  1.00 39.24     0.002 A 
ATOM     43  CZ2 TRP A  63     -17.565   5.719   3.793  1.00 37.99     0.030 A 
ATOM     44  NE1 TRP A  63     -19.171   7.608   3.434  1.00 37.98    -0.365 N 
ATOM     45  H06 TRP A  63     -18.595   8.235   2.890  1.00 37.98     0.165 HD
ATOM     46  CD1 TRP A  63     -20.472   7.843   3.810  1.00 38.16     0.096 A 
ENDBRANCH  36  37
ENDBRANCH  35  36
END_RES TRP A  63
BEGIN_RES LEU A  66
REMARK  2 active torsions:
REMARK  status: ('A' for Active; 'I' for Inactive)
REMARK   16  A    between atoms: CA   and  CB  
REMARK   17  A    between atoms: CB   and  CG  
ROOT
ATOM     47  CA  LEU A  66     -20.004   6.489  11.120  1.00 10.90     0.177 C 
ENDROOT
BRANCH  47  48
ATOM     48  CB  LEU A  66     -19.626   5.453  10.069  1.00 13.57     0.038 C 
BRANCH  48  49
ATOM     49  CG  LEU A  66     -19.344   4.033  10.557  1.00  8.73    -0.020 C 
ATOM     50  CD1 LEU A  66     -19.168   4.010  12.053  1.00 14.23     0.009 C 
ATOM     51  CD2 LEU A  66     -20.500   3.152  10.159  1.00  1.92     0.009 C 
ENDBRANCH  48  49
ENDBRANCH  47  48
END_RES LEU A  66
BEGIN_RES PHE A  70
REMARK  2 active torsions:
REMARK  status: ('A' for Active; 'I' for Inactive)
REMARK   18  A    between atoms: CA   and  CB  
REMARK   19  A    between atoms: CB   and  CG  
ROOT
ATOM     52  CA  PHE A  70     -14.974   9.434  13.165  1.00  8.78     0.180 C 
ENDROOT
BRANCH  52  53
ATOM     53  CB  PHE A  70     -14.707   9.132  11.681  1.00  6.33     0.073 C 
BRANCH  53  54
ATOM     54  CG  PHE A  70     -13.964   7.843  11.457  1.00  3.42    -0.056 A 
ATOM     55  CD1 PHE A  70     -13.470   7.107  12.523  1.00 13.88     0.007 A 
ATOM     56  CE1 PHE A  70     -12.736   5.928  12.305  1.00 12.71     0.001 A 
ATOM     57  CZ  PHE A  70     -12.496   5.482  11.005  1.00  4.21     0.000 A 
ATOM     58  CE2 PHE A  70     -12.985   6.205   9.934  1.00  2.83     0.001 A 
ATOM     59  CD2 PHE A  70     -13.718   7.383  10.163  1.00  1.00     0.007 A 
ENDBRANCH  53  54
ENDBRANCH  52  53
END_RES PHE A  70
BEGIN_RES TYR A  73
REMARK  3 active torsions:
REMARK  status: ('A' for Active; 'I' for Inactive)
REMARK   20  A    between atoms: CA   and  CB  
REMARK   21  A    between atoms: CB   and  CG  
REMARK   22  A    between atoms: CZ   and  OH  
ROOT
ATOM     60  CA  TYR A  73     -13.212  10.166  17.260  1.00 12.17     0.180 C 
ENDROOT
BRANCH  60  61
ATOM     61  CB  TYR A  73     -13.301   8.846  16.517  1.00 12.84     0.073 C 
BRANCH  61  62
ATOM     62  CG  TYR A  73     -13.174   7.663  17.412  1.00 15.89    -0.056 A 
ATOM     63  CD1 TYR A  73     -12.928   7.813  18.759  1.00 16.00     0.010 A 
ATOM     64  CE1 TYR A  73     -12.778   6.706  19.593  1.00 13.55     0.037 A 
ATOM     65  CZ  TYR A  73     -12.878   5.437  19.058  1.00 18.13     0.065 A 
ATOM     66  CE2 TYR A  73     -13.125   5.260  17.717  1.00 15.89     0.037 A 
ATOM     67  CD2 TYR A  73     -13.272   6.374  16.900  1.00 21.86     0.010 A 
BRANCH  65  68
ATOM     68  OH  TYR A  73     -12.740   4.333  19.863  1.00 12.12    -0.361 OA
ATOM     69  H08 TYR A  73     -12.643   3.549  19.317  1.00 12.12     0.217 HD
ENDBRANCH  65  68
ENDBRANCH  61  62
ENDBRANCH  60  61
END_RES TYR A  73
BEGIN_RES PHE A  77
REMARK  2 active torsions:
REMARK  status: ('A' for Active; 'I' for Inactive)
REMARK   23  A    between atoms: CA   and  CB  
REMARK   24  A    between atoms: CB   and  CG  
ROOT
ATOM     70  CA  PHE A  77      -8.400  10.581  20.110  1.00 17.17     0.180 C 
ENDROOT
BRANCH  70  71
ATOM     71  CB  PHE A  77      -8.228   9.750  18.851  1.00 10.44     0.073 C 
BRANCH  71  72
ATOM     72  CG  PHE A  77      -7.222   8.650  18.987  1.00  6.07    -0.056 A 
ATOM     73  CD2 PHE A  77      -6.207   8.513  18.069  1.00  9.61     0.007 A 
ATOM     74  CE2 PHE A  77      -5.267   7.495  18.189  1.00  1.00     0.001 A 
ATOM     75  CZ  PHE A  77      -5.345   6.604  19.245  1.00  1.92     0.000 A 
ATOM     76  CE1 PHE A  77      -6.354   6.728  20.173  1.00  9.25     0.001 A 
ATOM     77  CD1 PHE A  77      -7.291   7.753  20.040  1.00  9.63     0.007 A 
ENDBRANCH  71  72
ENDBRANCH  70  71
END_RES PHE A  77
BEGIN_RES LEU A  96
REMARK  2 active torsions:
REMARK  status: ('A' for Active; 'I' for Inactive)
REMARK   25  A    between atoms: CA   and  CB  
REMARK   26  A    between atoms: CB   and  CG  
ROOT
ATOM     78  CA  LEU A  96       0.717   6.481  17.359  1.00 16.08     0.177 C 
ENDROOT
BRANCH  78  79
ATOM     79  CB  LEU A  96      -0.370   7.101  18.230  1.00 18.83     0.038 C 
BRANCH  79  80
ATOM     80  CG  LEU A  96      -0.260   6.765  19.717  1.00 19.03    -0.020 C 
ATOM     81  CD1 LEU A  96       0.394   7.924  20.432  1.00 28.17     0.009 C 
ATOM     82  CD2 LEU A  96      -1.633   6.549  20.311  1.00 22.01     0.009 C 
ENDBRANCH  79  80
ENDBRANCH  78  79
END_RES LEU A  96
BEGIN_RES VAL A  98
REMARK  1 active torsions:
REMARK  status: ('A' for Active; 'I' for Inactive)
REMARK   27  A    between atoms: CA   and  CB  
ROOT
ATOM     83  CA  VAL A  98      -3.928   2.082  14.897  1.00 19.83     0.180 C 
ENDROOT
BRANCH  83  84
ATOM     84  CB  VAL A  98      -5.203   2.807  15.281  1.00 17.87     0.009 C 
ATOM     85  CG2 VAL A  98      -4.914   4.265  15.529  1.00 29.90     0.012 C 
ATOM     86  CG1 VAL A  98      -5.802   2.161  16.512  1.00 14.79     0.012 C 
ENDBRANCH  83  84
END_RES VAL A  98
BEGIN_RES ASN A 112
REMARK  2 active torsions:
REMARK  status: ('A' for Active; 'I' for Inactive)
REMARK   28  A    between atoms: CA   and  CB  
REMARK   29  A    between atoms: CB   and  CG  
REMARK       I    between atoms: CG   and  ND2 
ROOT
ATOM     87  CA  ASN A 112     -11.790  -8.793  14.069  1.00 37.70     0.185 C 
ENDROOT
BRANCH  87  88
ATOM     88  CB  ASN A 112     -12.992  -7.945  14.465  1.00 26.24     0.137 C 
BRANCH  88  89
ATOM     89  CG  ASN A 112     -13.815  -8.564  15.572  1.00 21.77     0.217 C 
ATOM     90  ND2 ASN A 112     -14.963  -9.134  15.204  1.00  9.31    -0.370 N 
ATOM     91  H04 ASN A 112     -15.559  -9.563  15.897  1.00  9.31     0.159 HD
ATOM     92  H05 ASN A 112     -15.236  -9.136  14.231  1.00  9.31     0.159 HD
ATOM     93  OD1 ASN A 112     -13.430  -8.529  16.747  1.00 21.61    -0.274 OA
ENDBRANCH  88  89
ENDBRANCH  87  88
END_RES ASN A 112
BEGIN_RES PHE A 114
REMARK  2 active torsions:
REMARK  status: ('A' for Active; 'I' for Inactive)
REMARK   30  A    between atoms: CA   and  CB  
REMARK   31  A    between atoms: CB   and  CG  
ROOT
ATOM     94  CA  PHE A 114      -7.754  -3.619  17.012  1.00 26.06     0.180 C 
ENDROOT
BRANCH  94  95
ATOM     95  CB  PHE A 114      -8.890  -3.080  17.867  1.00 19.95     0.073 C 
BRANCH  95  96
ATOM     96  CG  PHE A 114      -9.197  -1.641  17.605  1.00 17.65    -0.056 A 
ATOM     97  CD1 PHE A 114      -8.175  -0.702  17.497  1.00 13.01     0.007 A 
ATOM     98  CE1 PHE A 114      -8.461   0.640  17.282  1.00  6.74     0.001 A 
ATOM     99  CZ  PHE A 114      -9.783   1.062  17.170  1.00  6.27     0.000 A 
ATOM    100  CE2 PHE A 114     -10.808   0.136  17.275  1.00 17.36     0.001 A 
ATOM    101  CD2 PHE A 114     -10.513  -1.214  17.492  1.00 18.39     0.007 A 
ENDBRANCH  95  96
ENDBRANCH  94  95
END_RES PHE A 114
BEGIN_RES VAL A 116
REMARK  1 active torsions:
REMARK  status: ('A' for Active; 'I' for Inactive)
REMARK   32  A    between atoms: CA   and  CB  
ROOT
ATOM    102  CA  VAL A 116      -2.467   0.283  18.565  1.00 13.48     0.180 C 
ENDROOT
BRANCH 102 103
ATOM    103  CB  VAL A 116      -3.101   1.238  19.599  1.00 20.86     0.009 C 
ATOM    104  CG1 VAL A 116      -3.116   2.663  19.038  1.00 25.01     0.012 C 
ATOM    105  CG2 VAL A 116      -4.488   0.775  19.980  1.00 25.34     0.012 C 
ENDBRANCH 102 103
END_RES VAL A 116
BEGIN_RES ILE A 123
REMARK  2 active torsions:
REMARK  status: ('A' for Active; 'I' for Inactive)
REMARK   33  A    between atoms: CA   and  CB  
REMARK   34  A    between atoms: CB   and  CG1 
ROOT
ATOM    106  CA  ILE A 123       1.557  -1.626  23.222  1.00 15.07     0.180 C 
ENDROOT
BRANCH 106 107
ATOM    107  CB  ILE A 123       1.697  -0.112  23.461  1.00 14.41     0.013 C 
ATOM    108  CG2 ILE A 123       3.097   0.206  23.957  1.00 18.35     0.012 C 
BRANCH 107 109
ATOM    109  CG1 ILE A 123       1.406   0.657  22.175  1.00 15.23     0.002 C 
ATOM    110  CD1 ILE A 123       0.224   1.590  22.281  1.00 14.67     0.005 C 
ENDBRANCH 107 109
ENDBRANCH 106 107
END_RES ILE A 123
BEGIN_RES LEU A 124
REMARK  2 active torsions:
REMARK  status: ('A' for Active; 'I' for Inactive)
REMARK   35  A    between atoms: CA   and  CB  
REMARK   36  A    between atoms: CB   and  CG  
ROOT
ATOM    111  CA  LEU A 124      -2.057  -2.686  23.524  1.00 11.86     0.177 C 
ENDROOT
BRANCH 111 112
ATOM    112  CB  LEU A 124      -2.698  -1.652  24.429  1.00 14.60     0.038 C 
BRANCH 112 113
ATOM    113  CG  LEU A 124      -2.626  -0.252  23.838  1.00 16.19    -0.020 C 
ATOM    114  CD1 LEU A 124      -4.049   0.213  23.474  1.00 22.07     0.009 C 
ATOM    115  CD2 LEU A 124      -1.966   0.677  24.826  1.00  9.12     0.009 C 
ENDBRANCH 112 113
ENDBRANCH 111 112
END_RES LEU A 124
BEGIN_RES PHE A 126
REMARK  2 active torsions:
REMARK  status: ('A' for Active; 'I' for Inactive)
REMARK   37  A    between atoms: CA   and  CB  
REMARK   38  A    between atoms: CB   and  CG  
ROOT
ATOM    116  CA  PHE A 126      -8.784  -4.792  22.233  1.00 23.15     0.180 C 
ENDROOT
BRANCH 116 117
ATOM    117  CB  PHE A 126      -9.823  -4.011  21.461  1.00 20.65     0.073 C 
BRANCH 117 118
ATOM    118  CG  PHE A 126     -10.942  -3.530  22.299  1.00 23.65    -0.056 A 
ATOM    119  CD2 PHE A 126     -12.202  -4.091  22.185  1.00 36.63     0.007 A 
ATOM    120  CE2 PHE A 126     -13.261  -3.634  22.981  1.00 36.27     0.001 A 
ATOM    121  CZ  PHE A 126     -13.050  -2.611  23.893  1.00 18.06     0.000 A 
ATOM    122  CE1 PHE A 126     -11.794  -2.051  24.012  1.00  5.50     0.001 A 
ATOM    123  CD1 PHE A 126     -10.744  -2.513  23.217  1.00 15.29     0.007 A 
ENDBRANCH 117 118
ENDBRANCH 116 117
END_RES PHE A 126
BEGIN_RES TRP A 131
REMARK  2 active torsions:
REMARK  status: ('A' for Active; 'I' for Inactive)
REMARK   39  A    between atoms: CA   and  CB  
REMARK   40  A    between atoms: CB   and  CG  
ROOT
ATOM    124  CA  TRP A 131      -8.096  -3.335  26.542  1.00 14.52     0.181 C 
ENDROOT
BRANCH 124 125
ATOM    125  CB  TRP A 131      -7.651  -1.877  26.607  1.00 13.06     0.075 C 
BRANCH 125 126
ATOM    126  CG  TRP A 131      -8.001  -1.065  25.379  1.00 16.97    -0.028 A 
ATOM    127  CD2 TRP A 131      -9.046  -0.095  25.269  1.00 11.34    -0.002 A 
ATOM    128  CE2 TRP A 131      -9.010   0.418  23.957  1.00  5.87     0.042 A 
ATOM    129  CE3 TRP A 131     -10.012   0.389  26.157  1.00  3.80     0.014 A 
ATOM    130  CZ2 TRP A 131      -9.902   1.395  23.512  1.00  1.35     0.030 A 
ATOM    131  NE1 TRP A 131      -7.990  -0.212  23.297  1.00 13.90    -0.365 N 
ATOM    132  CH2 TRP A 131     -10.838   1.853  24.406  1.00  1.00     0.002 A 
ATOM    133  CZ3 TRP A 131     -10.900   1.356  25.721  1.00  1.00     0.001 A 
ATOM    134  CD1 TRP A 131      -7.388  -1.101  24.157  1.00 17.22     0.096 A 
ATOM    135  H07 TRP A 131      -7.723  -0.051  22.337  1.00 13.90     0.165 HD
ENDBRANCH 125 126
ENDBRANCH 124 125
END_RES TRP A 131
BEGIN_RES LEU A 148
REMARK  2 active torsions:
REMARK  status: ('A' for Active; 'I' for Inactive)
REMARK   41  A    between atoms: CA   and  CB  
REMARK   42  A    between atoms: CB   and  CG  
ROOT
ATOM    136  CA  LEU A 148      -9.018   3.259  29.295  1.00 16.99     0.177 C 
ENDROOT
BRANCH 136 137
ATOM    137  CB  LEU A 148      -8.166   2.574  28.236  1.00  6.39     0.038 C 
BRANCH 137 138
ATOM    138  CG  LEU A 148      -7.782   3.290  26.957  1.00  1.00    -0.020 C 
ATOM    139  CD2 LEU A 148      -6.292   3.450  26.877  1.00  1.00     0.009 C 
ATOM    140  CD1 LEU A 148      -8.465   4.645  26.948  1.00  2.71     0.009 C 
ENDBRANCH 137 138
ENDBRANCH 136 137
END_RES LEU A 148
BEGIN_RES THR A 154
REMARK  2 active torsions:
REMARK  status: ('A' for Active; 'I' for Inactive)
REMARK   43  A    between atoms: CA   and  CB  
REMARK   44  A    between atoms: CB   and  OG1 
ROOT
ATOM    141  CA  THR A 154     -15.990   3.959  24.426  1.00 20.45     0.205 C 
ENDROOT
BRANCH 141 142
ATOM    142  CB  THR A 154     -14.777   4.829  24.694  1.00 16.79     0.146 C 
ATOM    143  CG2 THR A 154     -13.655   4.471  23.739  1.00 20.24     0.042 C 
BRANCH 142 144
ATOM    144  OG1 THR A 154     -15.136   6.202  24.492  1.00 18.84    -0.393 OA
ATOM    145  H06 THR A 154     -14.617   6.758  25.077  1.00 18.84     0.210 HD
ENDBRANCH 142 144
ENDBRANCH 141 142
END_RES THR A 154
BEGIN_RES VAL A 158
REMARK  1 active torsions:
REMARK  status: ('A' for Active; 'I' for Inactive)
REMARK   45  A    between atoms: CA   and  CB  
ROOT
ATOM    146  CA  VAL A 158     -15.487  -0.189  19.892  1.00 15.49     0.180 C 
ENDROOT
BRANCH 146 147
ATOM    147  CB  VAL A 158     -14.291  -0.273  20.822  1.00  6.52     0.009 C 
ATOM    148  CG1 VAL A 158     -13.249  -1.222  20.276  1.00  1.00     0.012 C 
ATOM    149  CG2 VAL A 158     -13.718   1.100  20.993  1.00  5.99     0.012 C 
ENDBRANCH 146 147
END_RES VAL A 158
BEGIN_RES LEU A 161
REMARK  2 active torsions:
REMARK  status: ('A' for Active; 'I' for Inactive)
REMARK   46  A    between atoms: CA   and  CB  
REMARK   47  A    between atoms: CB   and  CG  
ROOT
ATOM    150  CA  LEU A 161     -18.031  -1.858  15.935  1.00 13.31     0.177 C 
ENDROOT
BRANCH 150 151
ATOM    151  CB  LEU A 161     -17.046  -0.706  16.001  1.00 14.13     0.038 C 
BRANCH 151 152
ATOM    152  CG  LEU A 161     -17.529   0.628  15.445  1.00 19.39    -0.020 C 
ATOM    153  CD2 LEU A 161     -17.420   0.636  13.939  1.00 27.75     0.009 C 
ATOM    154  CD1 LEU A 161     -16.690   1.731  16.029  1.00 18.59     0.009 C 
ENDBRANCH 151 152
ENDBRANCH 150 151
END_RES LEU A 161
BEGIN_RES GLN A 168
REMARK  3 active torsions:
REMARK  status: ('A' for Active; 'I' for Inactive)
REMARK   48  A    between atoms: CA   and  CB  
REMARK   49  A    between atoms: CB   and  CG  
REMARK   50  A    between atoms: CG   and  CD  
REMARK       I    between atoms: CD   and  NE2 
ROOT
ATOM    155  CA  GLN A 168     -22.035  -6.020   8.155  1.00 30.94     0.177 C 
ENDROOT
BRANCH 155 156
ATOM    156  CB  GLN A 168     -23.054  -5.218   8.946  1.00 41.76     0.044 C 
BRANCH 156 157
ATOM    157  CG  GLN A 168     -24.419  -5.846   9.021  1.00 61.20     0.105 C 
BRANCH 157 158
ATOM    158  CD  GLN A 168     -24.785  -6.236  10.440  1.00 75.49     0.215 C 
ATOM    159  NE2 GLN A 168     -24.030  -5.713  11.409  1.00 85.00    -0.370 N 
ATOM    160  H06 GLN A 168     -24.222  -5.937  12.375  1.00 85.00     0.159 HD
ATOM    161  H07 GLN A 168     -23.267  -5.094  11.175  1.00 85.00     0.159 HD
ATOM    162  OE1 GLN A 168     -25.731  -7.003  10.669  1.00 73.64    -0.274 OA
ENDBRANCH 157 158
ENDBRANCH 156 157
ENDBRANCH 155 156
END_RES GLN A 168
ENDMDL
MODEL 4
REMARK VINA RESULT:      -7.4      1.447      4.993
REMARK  Name = human_CD1d_CTAB_pred.rank_0
REMARK  15 active torsions:
REMARK  status: ('A' for Active; 'I' for Inactive)
REMARK    1  A    between atoms: N_2  and  C_17
REMARK    2  A    between atoms: C_3  and  C_4
REMARK    3  A    between atoms: C_4  and  C_5
REMARK    4  A    between atoms: C_5  and  C_6
REMARK    5  A    between atoms: C_6  and  C_7
REMARK    6  A    between atoms: C_7  and  C_8
REMARK    7  A    between atoms: C_8  and  C_9
REMARK    8  A    between atoms: C_9  and  C_10
REMARK    9  A    between atoms: C_10  and  C_11
REMARK   10  A    between atoms: C_11  and  C_12
REMARK   11  A    between atoms: C_12  and  C_13
REMARK   12  A    between atoms: C_13  and  C_14
REMARK   13  A    between atoms: C_14  and  C_15
REMARK   14  A    between atoms: C_15  and  C_16
REMARK   15  A    between atoms: C_16  and  C_17
REMARK                            x       y       z     vdW  Elec       q    Type
REMARK                         _______ _______ _______ _____ _____    ______ ____
ROOT
ATOM      1  C   UNL     1     -13.730   2.936  15.070  0.00  0.00    +0.000 C 
ENDROOT
BRANCH   1   2
ATOM      2  C   UNL     1     -12.330   2.402  15.009  0.00  0.00    +0.000 C 
BRANCH   2   3
ATOM      3  C   UNL     1     -11.652   2.792  13.709  0.00  0.00    +0.000 C 
BRANCH   3   4
ATOM      4  C   UNL     1     -10.311   3.442  13.979  0.00  0.00    +0.000 C 
BRANCH   4   5
ATOM      5  C   UNL     1     -10.368   4.205  15.320  0.00  0.00    +0.000 C 
BRANCH   5   6
ATOM      6  C   UNL     1      -8.972   4.560  15.805  0.00  0.00    +0.000 C 
BRANCH   6   7
ATOM      7  C   UNL     1      -8.714   6.044  15.551  0.00  0.00    +0.000 C 
BRANCH   7   8
ATOM      8  C   UNL     1     -10.009   6.823  15.595  0.00  0.00    +0.000 C 
BRANCH   8  10
ATOM      9  C   UNL     1      -8.438   8.701  15.254  0.00  0.00    +0.000 C 
ATOM     10  C   UNL     1      -9.790   8.163  14.911  0.00  0.00    +0.000 C 
ENDBRANCH   8  10
ENDBRANCH   7   8
ENDBRANCH   6   7
ENDBRANCH   5   6
ENDBRANCH   4   5
ENDBRANCH   3   4
ENDBRANCH   2   3
ENDBRANCH   1   2
BRANCH   1  11
ATOM     11  C   UNL     1     -14.264   3.204  13.679  0.00  0.00    +0.000 C 
BRANCH  11  12
ATOM     12  C   UNL     1     -15.359   4.246  13.743  0.00  0.00    +0.000 C 
BRANCH  12  13
ATOM     13  C   UNL     1     -16.388   3.966  12.669  0.00  0.00    +0.000 C 
BRANCH  13  14
ATOM     14  C   UNL     1     -16.144   4.873  11.473  0.00  0.00    +0.000 C 
BRANCH  14  15
ATOM     15  C   UNL     1     -15.910   4.019  10.212  0.00  0.00    +0.000 C 
BRANCH  15  16
ATOM     16  C   UNL     1     -16.207   2.553  10.494  0.00  0.00    +0.000 C 
BRANCH  16  17
ATOM     17  N   UNL     1     -16.529   1.853   9.245  0.00  0.00    +0.000 N 
ATOM     18  C   UNL     1     -15.340   1.128   8.838  0.00  0.00    +0.000 C 
ATOM     19  C   UNL     1     -16.848   2.823   8.225  0.00  0.00    +0.000 C 
ATOM     20  C   UNL     1     -17.627   0.902   9.418  0.00  0.00    +0.000 C 
ENDBRANCH  16  17
ENDBRANCH  15  16
ENDBRANCH  14  15
ENDBRANCH  13  14
ENDBRANCH  12  13
ENDBRANCH  11  12
ENDBRANCH   1  11
TORSDOF 15
BEGIN_RES LEU A  10
REMARK  2 active torsions:
REMARK  status: ('A' for Active; 'I' for Inactive)
REMARK    1  A    between atoms: CA   and  CB  
REMARK    2  A    between atoms: CB   and  CG  
ROOT
ATOM      1  CA  LEU A  10     -10.775  -4.871   5.898  1.00 25.14     0.177 C 
ENDROOT
BRANCH   1   2
ATOM      2  CB  LEU A  10     -12.191  -4.387   6.226  1.00 17.87     0.038 C 
BRANCH   2   3
ATOM      3  CG  LEU A  10     -12.389  -2.875   6.096  1.00 24.95    -0.020 C 
ATOM      4  CD2 LEU A  10     -13.676  -2.496   6.747  1.00 26.38     0.009 C 
ATOM      5  CD1 LEU A  10     -12.381  -2.450   4.638  1.00 28.12     0.009 C 
ENDBRANCH   2   3
ENDBRANCH   1   2
END_RES LEU A  10
BEGIN_RES CYS A  12
REMARK  2 active torsions:
REMARK  status: ('A' for Active; 'I' for Inactive)
REMARK    3  A    between atoms: CA   and  CB  
REMARK    4  A    between atoms: CB   and  SG  
ROOT
ATOM      6  CA  CYS A  12      -8.555   0.470   8.750  1.00 23.16     0.185 C 
ENDROOT
BRANCH   6   7
ATOM      7  CB  CYS A  12      -9.828   0.763   9.555  1.00 20.43     0.105 C 
BRANCH   7   8
ATOM      8  SG  CYS A  12     -10.953   2.006   8.849  1.00 24.64    -0.180 SA
ATOM      9  H04 CYS A  12     -10.337   2.649   7.848  1.00 24.64     0.101 HD
ENDBRANCH   7   8
ENDBRANCH   6   7
END_RES CYS A  12
BEGIN_RES GLN A  14
REMARK  3 active torsions:
REMARK  status: ('A' for Active; 'I' for Inactive)
REMARK    5  A    between atoms: CA   and  CB  
REMARK    6  A    between atoms: CB   and  CG  
REMARK    7  A    between atoms: CG   and  CD  
REMARK       I    between atoms: CD   and  NE2 
ROOT
ATOM     10  CA  GLN A  14      -4.645   5.402  11.377  1.00 10.43     0.177 C 
ENDROOT
BRANCH  10  11
ATOM     11  CB  GLN A  14      -5.541   5.549  12.608  1.00 14.45     0.044 C 
BRANCH  11  12
ATOM     12  CG  GLN A  14      -6.594   6.626  12.480  1.00 13.74     0.105 C 
BRANCH  12  13
ATOM     13  CD  GLN A  14      -6.003   8.015  12.497  1.00 16.29     0.215 C 
ATOM     14  NE2 GLN A  14      -6.642   8.932  11.803  1.00  8.57    -0.370 N 
ATOM     15  H06 GLN A  14      -6.295   9.880  11.778  1.00  8.57     0.159 HD
ATOM     16  H07 GLN A  14      -7.481   8.688  11.295  1.00  8.57     0.159 HD
ATOM     17  OE1 GLN A  14      -4.988   8.261  13.128  1.00 23.55    -0.274 OA
ENDBRANCH  12  13
ENDBRANCH  11  12
ENDBRANCH  10  11
END_RES GLN A  14
BEGIN_RES SER A  16
REMARK  2 active torsions:
REMARK  status: ('A' for Active; 'I' for Inactive)
REMARK    8  A    between atoms: CA   and  CB  
REMARK    9  A    between atoms: CB   and  OG  
ROOT
ATOM     18  CA  SER A  16      -1.305  10.019  14.282  1.00  2.34     0.200 C 
ENDROOT
BRANCH  18  19
ATOM     19  CB  SER A  16      -2.242   9.935  15.479  1.00  3.12     0.199 C 
BRANCH  19  20
ATOM     20  OG  SER A  16      -3.471   9.339  15.102  1.00  1.00    -0.398 OA
ATOM     21  H04 SER A  16      -3.550   9.347  14.145  1.00  1.00     0.209 HD
ENDBRANCH  19  20
ENDBRANCH  18  19
END_RES SER A  16
BEGIN_RES LEU A  32
REMARK  2 active torsions:
REMARK  status: ('A' for Active; 'I' for Inactive)
REMARK   10  A    between atoms: CA   and  CB  
REMARK   11  A    between atoms: CB   and  CG  
ROOT
ATOM     22  CA  LEU A  32     -10.272  -4.106   1.587  1.00 16.16     0.177 C 
ENDROOT
BRANCH  22  23
ATOM     23  CB  LEU A  32     -11.613  -3.858   0.880  1.00 12.35     0.038 C 
BRANCH  23  24
ATOM     24  CG  LEU A  32     -12.578  -5.050   1.045  1.00  9.77    -0.020 C 
ATOM     25  CD1 LEU A  32     -13.021  -5.172   2.483  1.00  4.35     0.009 C 
ATOM     26  CD2 LEU A  32     -13.782  -4.893   0.154  1.00 10.60     0.009 C 
ENDBRANCH  23  24
ENDBRANCH  22  23
END_RES LEU A  32
BEGIN_RES HIS A  38
REMARK  2 active torsions:
REMARK  status: ('A' for Active; 'I' for Inactive)
REMARK   12  A    between atoms: CA   and  CB  
REMARK   13  A    between atoms: CB   and  CG  
ROOT
ATOM     27  CA  HIS A  38     -10.959   4.941   1.621  1.00 16.94     0.182 C 
ENDROOT
BRANCH  27  28
ATOM     28  CB  HIS A  38     -11.810   4.840   2.881  1.00 15.47     0.095 C 
BRANCH  28  29
ATOM     29  CG  HIS A  38     -12.990   3.934   2.741  1.00 18.62     0.053 A 
ATOM     30  CD2 HIS A  38     -14.151   4.085   2.060  1.00 15.06     0.116 A 
ATOM     31  NE2 HIS A  38     -14.877   2.936   2.243  1.00 18.12    -0.359 N 
ATOM     32  CE1 HIS A  38     -14.190   2.110   3.009  1.00 14.78     0.207 A 
ATOM     33  H06 HIS A  38     -15.791   2.752   1.855  1.00 18.12     0.166 HD
ATOM     34  ND1 HIS A  38     -13.048   2.687   3.325  1.00 16.58    -0.247 NA
ENDBRANCH  28  29
ENDBRANCH  27  28
END_RES HIS A  38
BEGIN_RES TRP A  63
REMARK  2 active torsions:
REMARK  status: ('A' for Active; 'I' for Inactive)
REMARK   14  A    between atoms: CA   and  CB  
REMARK   15  A    between atoms: CB   and  CG  
ROOT
ATOM     35  CA  TRP A  63     -22.437   6.257   6.543  1.00 27.04     0.181 C 
ENDROOT
BRANCH  35  36
ATOM     36  CB  TRP A  63     -22.360   6.642   5.068  1.00 31.37     0.075 C 
BRANCH  36  37
ATOM     37  CG  TRP A  63     -20.953   6.793   4.530  1.00 34.37    -0.028 A 
ATOM     38  CD2 TRP A  63     -19.888   5.834   4.604  1.00 33.79    -0.002 A 
ATOM     39  CE3 TRP A  63     -19.755   4.572   5.186  1.00 32.99     0.014 A 
ATOM     40  CE2 TRP A  63     -18.787   6.379   3.907  1.00 35.84     0.042 A 
ATOM     41  CZ3 TRP A  63     -18.546   3.903   5.059  1.00 32.93     0.001 A 
ATOM     42  CH2 TRP A  63     -17.470   4.472   4.361  1.00 39.24     0.002 A 
ATOM     43  CZ2 TRP A  63     -17.571   5.707   3.778  1.00 37.99     0.030 A 
ATOM     44  NE1 TRP A  63     -19.169   7.606   3.438  1.00 37.98    -0.365 N 
ATOM     45  H06 TRP A  63     -18.590   8.235   2.899  1.00 37.98     0.165 HD
ATOM     46  CD1 TRP A  63     -20.467   7.845   3.818  1.00 38.16     0.096 A 
ENDBRANCH  36  37
ENDBRANCH  35  36
END_RES TRP A  63
BEGIN_RES LEU A  66
REMARK  2 active torsions:
REMARK  status: ('A' for Active; 'I' for Inactive)
REMARK   16  A    between atoms: CA   and  CB  
REMARK   17  A    between atoms: CB   and  CG  
ROOT
ATOM     47  CA  LEU A  66     -20.004   6.489  11.120  1.00 10.90     0.177 C 
ENDROOT
BRANCH  47  48
ATOM     48  CB  LEU A  66     -19.626   5.453  10.069  1.00 13.57     0.038 C 
BRANCH  48  49
ATOM     49  CG  LEU A  66     -19.602   3.989  10.507  1.00  8.73    -0.020 C 
ATOM     50  CD1 LEU A  66     -19.947   3.866  11.968  1.00 14.23     0.009 C 
ATOM     51  CD2 LEU A  66     -20.600   3.225   9.674  1.00  1.92     0.009 C 
ENDBRANCH  48  49
ENDBRANCH  47  48
END_RES LEU A  66
BEGIN_RES PHE A  70
REMARK  2 active torsions:
REMARK  status: ('A' for Active; 'I' for Inactive)
REMARK   18  A    between atoms: CA   and  CB  
REMARK   19  A    between atoms: CB   and  CG  
ROOT
ATOM     52  CA  PHE A  70     -14.974   9.434  13.165  1.00  8.78     0.180 C 
ENDROOT
BRANCH  52  53
ATOM     53  CB  PHE A  70     -14.707   9.132  11.681  1.00  6.33     0.073 C 
BRANCH  53  54
ATOM     54  CG  PHE A  70     -13.927   7.865  11.459  1.00  3.42    -0.056 A 
ATOM     55  CD1 PHE A  70     -13.366   7.175  12.523  1.00 13.88     0.007 A 
ATOM     56  CE1 PHE A  70     -12.598   6.017  12.304  1.00 12.71     0.001 A 
ATOM     57  CZ  PHE A  70     -12.392   5.546  11.007  1.00  4.21     0.000 A 
ATOM     58  CE2 PHE A  70     -12.949   6.224   9.939  1.00  2.83     0.001 A 
ATOM     59  CD2 PHE A  70     -13.714   7.380  10.168  1.00  1.00     0.007 A 
ENDBRANCH  53  54
ENDBRANCH  52  53
END_RES PHE A  70
BEGIN_RES TYR A  73
REMARK  3 active torsions:
REMARK  status: ('A' for Active; 'I' for Inactive)
REMARK   20  A    between atoms: CA   and  CB  
REMARK   21  A    between atoms: CB   and  CG  
REMARK   22  A    between atoms: CZ   and  OH  
ROOT
ATOM     60  CA  TYR A  73     -13.212  10.166  17.260  1.00 12.17     0.180 C 
ENDROOT
BRANCH  60  61
ATOM     61  CB  TYR A  73     -13.301   8.846  16.517  1.00 12.84     0.073 C 
BRANCH  61  62
ATOM     62  CG  TYR A  73     -13.487   7.678  17.422  1.00 15.89    -0.056 A 
ATOM     63  CD1 TYR A  73     -13.812   7.852  18.749  1.00 16.00     0.010 A 
ATOM     64  CE1 TYR A  73     -13.956   6.761  19.605  1.00 13.55     0.037 A 
ATOM     65  CZ  TYR A  73     -13.768   5.485  19.114  1.00 18.13     0.065 A 
ATOM     66  CE2 TYR A  73     -13.444   5.284  17.792  1.00 15.89     0.037 A 
ATOM     67  CD2 TYR A  73     -13.305   6.382  16.953  1.00 21.86     0.010 A 
BRANCH  65  68
ATOM     68  OH  TYR A  73     -13.911   4.396  19.938  1.00 12.12    -0.361 OA
ATOM     69  H08 TYR A  73     -13.154   3.814  19.835  1.00 12.12     0.217 HD
ENDBRANCH  65  68
ENDBRANCH  61  62
ENDBRANCH  60  61
END_RES TYR A  73
BEGIN_RES PHE A  77
REMARK  2 active torsions:
REMARK  status: ('A' for Active; 'I' for Inactive)
REMARK   23  A    between atoms: CA   and  CB  
REMARK   24  A    between atoms: CB   and  CG  
ROOT
ATOM     70  CA  PHE A  77      -8.400  10.581  20.110  1.00 17.17     0.180 C 
ENDROOT
BRANCH  70  71
ATOM     71  CB  PHE A  77      -8.228   9.750  18.851  1.00 10.44     0.073 C 
BRANCH  71  72
ATOM     72  CG  PHE A  77      -8.597   8.310  19.024  1.00  6.07    -0.056 A 
ATOM     73  CD2 PHE A  77      -9.916   7.937  19.153  1.00  9.61     0.007 A 
ATOM     74  CE2 PHE A  77     -10.268   6.601  19.312  1.00  1.00     0.001 A 
ATOM     75  CZ  PHE A  77      -9.285   5.626  19.340  1.00  1.92     0.000 A 
ATOM     76  CE1 PHE A  77      -7.962   5.983  19.211  1.00  9.25     0.001 A 
ATOM     77  CD1 PHE A  77      -7.623   7.326  19.053  1.00  9.63     0.007 A 
ENDBRANCH  71  72
ENDBRANCH  70  71
END_RES PHE A  77
BEGIN_RES LEU A  96
REMARK  2 active torsions:
REMARK  status: ('A' for Active; 'I' for Inactive)
REMARK   25  A    between atoms: CA   and  CB  
REMARK   26  A    between atoms: CB   and  CG  
ROOT
ATOM     78  CA  LEU A  96       0.717   6.481  17.359  1.00 16.08     0.177 C 
ENDROOT
BRANCH  78  79
ATOM     79  CB  LEU A  96      -0.370   7.101  18.230  1.00 18.83     0.038 C 
BRANCH  79  80
ATOM     80  CG  LEU A  96      -0.152   6.932  19.733  1.00 19.03    -0.020 C 
ATOM     81  CD1 LEU A  96       0.555   8.157  20.265  1.00 28.17     0.009 C 
ATOM     82  CD2 LEU A  96      -1.478   6.797  20.446  1.00 22.01     0.009 C 
ENDBRANCH  79  80
ENDBRANCH  78  79
END_RES LEU A  96
BEGIN_RES VAL A  98
REMARK  1 active torsions:
REMARK  status: ('A' for Active; 'I' for Inactive)
REMARK   27  A    between atoms: CA   and  CB  
ROOT
ATOM     83  CA  VAL A  98      -3.928   2.082  14.897  1.00 19.83     0.180 C 
ENDROOT
BRANCH  83  84
ATOM     84  CB  VAL A  98      -5.203   2.807  15.281  1.00 17.87     0.009 C 
ATOM     85  CG2 VAL A  98      -5.255   3.006  16.774  1.00 29.90     0.012 C 
ATOM     86  CG1 VAL A  98      -6.401   2.013  14.803  1.00 14.79     0.012 C 
ENDBRANCH  83  84
END_RES VAL A  98
BEGIN_RES ASN A 112
REMARK  2 active torsions:
REMARK  status: ('A' for Active; 'I' for Inactive)
REMARK   28  A    between atoms: CA   and  CB  
REMARK   29  A    between atoms: CB   and  CG  
REMARK       I    between atoms: CG   and  ND2 
ROOT
ATOM     87  CA  ASN A 112     -11.790  -8.793  14.069  1.00 37.70     0.185 C 
ENDROOT
BRANCH  87  88
ATOM     88  CB  ASN A 112     -12.992  -7.945  14.465  1.00 26.24     0.137 C 
BRANCH  88  89
ATOM     89  CG  ASN A 112     -13.805  -8.556  15.584  1.00 21.77     0.217 C 
ATOM     90  ND2 ASN A 112     -14.948  -9.142  15.228  1.00  9.31    -0.370 N 
ATOM     91  H04 ASN A 112     -15.538  -9.567  15.929  1.00  9.31     0.159 HD
ATOM     92  H05 ASN A 112     -15.225  -9.161  14.256  1.00  9.31     0.159 HD
ATOM     93  OD1 ASN A 112     -13.417  -8.500  16.757  1.00 21.61    -0.274 OA
ENDBRANCH  88  89
ENDBRANCH  87  88
END_RES ASN A 112
BEGIN_RES PHE A 114
REMARK  2 active torsions:
REMARK  status: ('A' for Active; 'I' for Inactive)
REMARK   30  A    between atoms: CA   and  CB  
REMARK   31  A    between atoms: CB   and  CG  
ROOT
ATOM     94  CA  PHE A 114      -7.754  -3.619  17.012  1.00 26.06     0.180 C 
ENDROOT
BRANCH  94  95
ATOM     95  CB  PHE A 114      -8.890  -3.080  17.867  1.00 19.95     0.073 C 
BRANCH  95  96
ATOM     96  CG  PHE A 114      -9.164  -1.628  17.641  1.00 17.65    -0.056 A 
ATOM     97  CD1 PHE A 114      -8.119  -0.713  17.540  1.00 13.01     0.007 A 
ATOM     98  CE1 PHE A 114      -8.374   0.640  17.360  1.00  6.74     0.001 A 
ATOM     99  CZ  PHE A 114      -9.685   1.098  17.275  1.00  6.27     0.000 A 
ATOM    100  CE2 PHE A 114     -10.733   0.196  17.373  1.00 17.36     0.001 A 
ATOM    101  CD2 PHE A 114     -10.470  -1.166  17.556  1.00 18.39     0.007 A 
ENDBRANCH  95  96
ENDBRANCH  94  95
END_RES PHE A 114
BEGIN_RES VAL A 116
REMARK  1 active torsions:
REMARK  status: ('A' for Active; 'I' for Inactive)
REMARK   32  A    between atoms: CA   and  CB  
ROOT
ATOM    102  CA  VAL A 116      -2.467   0.283  18.565  1.00 13.48     0.180 C 
ENDROOT
BRANCH 102 103
ATOM    103  CB  VAL A 116      -3.101   1.238  19.599  1.00 20.86     0.009 C 
ATOM    104  CG1 VAL A 116      -2.751   2.685  19.241  1.00 25.01     0.012 C 
ATOM    105  CG2 VAL A 116      -4.595   1.030  19.678  1.00 25.34     0.012 C 
ENDBRANCH 102 103
END_RES VAL A 116
BEGIN_RES ILE A 123
REMARK  2 active torsions:
REMARK  status: ('A' for Active; 'I' for Inactive)
REMARK   33  A    between atoms: CA   and  CB  
REMARK   34  A    between atoms: CB   and  CG1 
ROOT
ATOM    106  CA  ILE A 123       1.557  -1.626  23.222  1.00 15.07     0.180 C 
ENDROOT
BRANCH 106 107
ATOM    107  CB  ILE A 123       1.697  -0.112  23.461  1.00 14.41     0.013 C 
ATOM    108  CG2 ILE A 123       3.094   0.205  23.965  1.00 18.35     0.012 C 
BRANCH 107 109
ATOM    109  CG1 ILE A 123       1.414   0.656  22.173  1.00 15.23     0.002 C 
ATOM    110  CD1 ILE A 123       0.193   1.541  22.251  1.00 14.67     0.005 C 
ENDBRANCH 107 109
ENDBRANCH 106 107
END_RES ILE A 123
BEGIN_RES LEU A 124
REMARK  2 active torsions:
REMARK  status: ('A' for Active; 'I' for Inactive)
REMARK   35  A    between atoms: CA   and  CB  
REMARK   36  A    between atoms: CB   and  CG  
ROOT
ATOM    111  CA  LEU A 124      -2.057  -2.686  23.524  1.00 11.86     0.177 C 
ENDROOT
BRANCH 111 112
ATOM    112  CB  LEU A 124      -2.698  -1.652  24.429  1.00 14.60     0.038 C 
BRANCH 112 113
ATOM    113  CG  LEU A 124      -2.616  -0.250  23.843  1.00 16.19    -0.020 C 
ATOM    114  CD1 LEU A 124      -4.020   0.181  23.377  1.00 22.07     0.009 C 
ATOM    115  CD2 LEU A 124      -2.051   0.693  24.875  1.00  9.12     0.009 C 
ENDBRANCH 112 113
ENDBRANCH 111 112
END_RES LEU A 124
BEGIN_RES PHE A 126
REMARK  2 active torsions:
REMARK  status: ('A' for Active; 'I' for Inactive)
REMARK   37  A    between atoms: CA   and  CB  
REMARK   38  A    between atoms: CB   and  CG  
ROOT
ATOM    116  CA  PHE A 126      -8.784  -4.792  22.233  1.00 23.15     0.180 C 
ENDROOT
BRANCH 116 117
ATOM    117  CB  PHE A 126      -9.823  -4.011  21.461  1.00 20.65     0.073 C 
BRANCH 117 118
ATOM    118  CG  PHE A 126     -10.953  -3.550  22.295  1.00 23.65    -0.056 A 
ATOM    119  CD2 PHE A 126     -12.206  -4.123  22.166  1.00 36.63     0.007 A 
ATOM    120  CE2 PHE A 126     -13.276  -3.686  22.958  1.00 36.27     0.001 A 
ATOM    121  CZ  PHE A 126     -13.083  -2.668  23.881  1.00 18.06     0.000 A 
ATOM    122  CE1 PHE A 126     -11.835  -2.095  24.013  1.00  5.50     0.001 A 
ATOM    123  CD1 PHE A 126     -10.774  -2.539  23.223  1.00 15.29     0.007 A 
ENDBRANCH 117 118
ENDBRANCH 116 117
END_RES PHE A 126
BEGIN_RES TRP A 131
REMARK  2 active torsions:
REMARK  status: ('A' for Active; 'I' for Inactive)
REMARK   39  A    between atoms: CA   and  CB  
REMARK   40  A    between atoms: CB   and  CG  
ROOT
ATOM    124  CA  TRP A 131      -8.096  -3.335  26.542  1.00 14.52     0.181 C 
ENDROOT
BRANCH 124 125
ATOM    125  CB  TRP A 131      -7.651  -1.877  26.607  1.00 13.06     0.075 C 
BRANCH 125 126
ATOM    126  CG  TRP A 131      -8.048  -1.052  25.403  1.00 16.97    -0.028 A 
ATOM    127  CD2 TRP A 131      -9.119  -0.106  25.334  1.00 11.34    -0.002 A 
ATOM    128  CE2 TRP A 131      -9.125   0.431  24.032  1.00  5.87     0.042 A 
ATOM    129  CE3 TRP A 131     -10.076   0.337  26.253  1.00  3.80     0.014 A 
ATOM    130  CZ2 TRP A 131     -10.051   1.394  23.626  1.00  1.35     0.030 A 
ATOM    131  NE1 TRP A 131      -8.106  -0.161  23.338  1.00 13.90    -0.365 N 
ATOM    132  CH2 TRP A 131     -10.978   1.812  24.548  1.00  1.00     0.002 A 
ATOM    133  CZ3 TRP A 131     -10.997   1.290  25.855  1.00  1.00     0.001 A 
ATOM    134  CD1 TRP A 131      -7.463  -1.050  24.167  1.00 17.22     0.096 A 
ATOM    135  H07 TRP A 131      -7.865   0.025  22.375  1.00 13.90     0.165 HD
ENDBRANCH 125 126
ENDBRANCH 124 125
END_RES TRP A 131
BEGIN_RES LEU A 148
REMARK  2 active torsions:
REMARK  status: ('A' for Active; 'I' for Inactive)
REMARK   41  A    between atoms: CA   and  CB  
REMARK   42  A    between atoms: CB   and  CG  
ROOT
ATOM    136  CA  LEU A 148      -9.018   3.259  29.295  1.00 16.99     0.177 C 
ENDROOT
BRANCH 136 137
ATOM    137  CB  LEU A 148      -8.166   2.574  28.236  1.00  6.39     0.038 C 
BRANCH 137 138
ATOM    138  CG  LEU A 148      -7.307   3.379  27.283  1.00  1.00    -0.020 C 
ATOM    139  CD2 LEU A 148      -8.057   3.656  26.013  1.00  1.00     0.009 C 
ATOM    140  CD1 LEU A 148      -6.045   2.586  26.995  1.00  2.71     0.009 C 
ENDBRANCH 137 138
ENDBRANCH 136 137
END_RES LEU A 148
BEGIN_RES THR A 154
REMARK  2 active torsions:
REMARK  status: ('A' for Active; 'I' for Inactive)
REMARK   43  A    between atoms: CA   and  CB  
REMARK   44  A    between atoms: CB   and  OG1 
ROOT
ATOM    141  CA  THR A 154     -15.990   3.959  24.426  1.00 20.45     0.205 C 
ENDROOT
BRANCH 141 142
ATOM    142  CB  THR A 154     -14.777   4.829  24.694  1.00 16.79     0.146 C 
ATOM    143  CG2 THR A 154     -13.682   4.524  23.690  1.00 20.24     0.042 C 
BRANCH 142 144
ATOM    144  OG1 THR A 154     -15.155   6.205  24.563  1.00 18.84    -0.393 OA
ATOM    145  H06 THR A 154     -14.979   6.502  23.668  1.00 18.84     0.210 HD
ENDBRANCH 142 144
ENDBRANCH 141 142
END_RES THR A 154
BEGIN_RES VAL A 158
REMARK  1 active torsions:
REMARK  status: ('A' for Active; 'I' for Inactive)
REMARK   45  A    between atoms: CA   and  CB  
ROOT
ATOM    146  CA  VAL A 158     -15.487  -0.189  19.892  1.00 15.49     0.180 C 
ENDROOT
BRANCH 146 147
ATOM    147  CB  VAL A 158     -14.291  -0.273  20.822  1.00  6.52     0.009 C 
ATOM    148  CG1 VAL A 158     -13.249  -1.222  20.276  1.00  1.00     0.012 C 
ATOM    149  CG2 VAL A 158     -13.719   1.100  20.993  1.00  5.99     0.012 C 
ENDBRANCH 146 147
END_RES VAL A 158
BEGIN_RES LEU A 161
REMARK  2 active torsions:
REMARK  status: ('A' for Active; 'I' for Inactive)
REMARK   46  A    between atoms: CA   and  CB  
REMARK   47  A    between atoms: CB   and  CG  
ROOT
ATOM    150  CA  LEU A 161     -18.031  -1.858  15.935  1.00 13.31     0.177 C 
ENDROOT
BRANCH 150 151
ATOM    151  CB  LEU A 161     -17.046  -0.706  16.001  1.00 14.13     0.038 C 
BRANCH 151 152
ATOM    152  CG  LEU A 161     -17.439   0.561  15.252  1.00 19.39    -0.020 C 
ATOM    153  CD2 LEU A 161     -16.807   0.575  13.881  1.00 27.75     0.009 C 
ATOM    154  CD1 LEU A 161     -16.980   1.756  16.043  1.00 18.59     0.009 C 
ENDBRANCH 151 152
ENDBRANCH 150 151
END_RES LEU A 161
BEGIN_RES GLN A 168
REMARK  3 active torsions:
REMARK  status: ('A' for Active; 'I' for Inactive)
REMARK   48  A    between atoms: CA   and  CB  
REMARK   49  A    between atoms: CB   and  CG  
REMARK   50  A    between atoms: CG   and  CD  
REMARK       I    between atoms: CD   and  NE2 
ROOT
ATOM    155  CA  GLN A 168     -22.035  -6.020   8.155  1.00 30.94     0.177 C 
ENDROOT
BRANCH 155 156
ATOM    156  CB  GLN A 168     -23.054  -5.218   8.946  1.00 41.76     0.044 C 
BRANCH 156 157
ATOM    157  CG  GLN A 168     -24.463  -5.737   8.854  1.00 61.20     0.105 C 
BRANCH 157 158
ATOM    158  CD  GLN A 168     -25.081  -5.458   7.498  1.00 75.49     0.215 C 
ATOM    159  NE2 GLN A 168     -25.107  -4.181   7.112  1.00 85.00    -0.370 N 
ATOM    160  H06 GLN A 168     -25.509  -3.931   6.220  1.00 85.00     0.159 HD
ATOM    161  H07 GLN A 168     -24.726  -3.464   7.714  1.00 85.00     0.159 HD
ATOM    162  OE1 GLN A 168     -25.538  -6.377   6.803  1.00 73.64    -0.274 OA
ENDBRANCH 157 158
ENDBRANCH 156 157
ENDBRANCH 155 156
END_RES GLN A 168
ENDMDL
MODEL 5
REMARK VINA RESULT:      -7.3      1.898      5.173
REMARK  Name = human_CD1d_CTAB_pred.rank_0
REMARK  15 active torsions:
REMARK  status: ('A' for Active; 'I' for Inactive)
REMARK    1  A    between atoms: N_2  and  C_17
REMARK    2  A    between atoms: C_3  and  C_4
REMARK    3  A    between atoms: C_4  and  C_5
REMARK    4  A    between atoms: C_5  and  C_6
REMARK    5  A    between atoms: C_6  and  C_7
REMARK    6  A    between atoms: C_7  and  C_8
REMARK    7  A    between atoms: C_8  and  C_9
REMARK    8  A    between atoms: C_9  and  C_10
REMARK    9  A    between atoms: C_10  and  C_11
REMARK   10  A    between atoms: C_11  and  C_12
REMARK   11  A    between atoms: C_12  and  C_13
REMARK   12  A    between atoms: C_13  and  C_14
REMARK   13  A    between atoms: C_14  and  C_15
REMARK   14  A    between atoms: C_15  and  C_16
REMARK   15  A    between atoms: C_16  and  C_17
REMARK                            x       y       z     vdW  Elec       q    Type
REMARK                         _______ _______ _______ _____ _____    ______ ____
ROOT
ATOM      1  C   UNL     1     -16.159   4.675  10.998  0.00  0.00    +0.000 C 
ENDROOT
BRANCH   1   2
ATOM      2  C   UNL     1     -16.008   3.203  10.752  0.00  0.00    +0.000 C 
BRANCH   2   3
ATOM      3  C   UNL     1     -14.653   2.885  10.149  0.00  0.00    +0.000 C 
BRANCH   3   4
ATOM      4  C   UNL     1     -14.805   2.024   8.913  0.00  0.00    +0.000 C 
BRANCH   4   5
ATOM      5  C   UNL     1     -16.289   1.994   8.486  0.00  0.00    +0.000 C 
BRANCH   5   6
ATOM      6  C   UNL     1     -16.533   2.910   7.298  0.00  0.00    +0.000 C 
BRANCH   6   7
ATOM      7  C   UNL     1     -15.197   3.477   6.818  0.00  0.00    +0.000 C 
BRANCH   7   8
ATOM      8  C   UNL     1     -15.184   4.983   6.945  0.00  0.00    +0.000 C 
BRANCH   8  10
ATOM      9  C   UNL     1     -16.569   6.924   7.599  0.00  0.00    +0.000 C 
ATOM     10  C   UNL     1     -16.522   5.432   7.510  0.00  0.00    +0.000 C 
ENDBRANCH   8  10
ENDBRANCH   7   8
ENDBRANCH   6   7
ENDBRANCH   5   6
ENDBRANCH   4   5
ENDBRANCH   3   4
ENDBRANCH   2   3
ENDBRANCH   1   2
BRANCH   1  11
ATOM     11  C   UNL     1     -16.473   4.947  12.454  0.00  0.00    +0.000 C 
BRANCH  11  12
ATOM     12  C   UNL     1     -16.178   3.714  13.280  0.00  0.00    +0.000 C 
BRANCH  12  13
ATOM     13  C   UNL     1     -15.137   4.044  14.328  0.00  0.00    +0.000 C 
BRANCH  13  14
ATOM     14  C   UNL     1     -14.474   2.766  14.816  0.00  0.00    +0.000 C 
BRANCH  14  15
ATOM     15  C   UNL     1     -13.910   1.981  13.616  0.00  0.00    +0.000 C 
BRANCH  15  16
ATOM     16  C   UNL     1     -13.931   0.485  13.895  0.00  0.00    +0.000 C 
BRANCH  16  17
ATOM     17  N   UNL     1     -13.477  -0.256  12.712  0.00  0.00    +0.000 N 
ATOM     18  C   UNL     1     -12.434   0.533  12.084  0.00  0.00    +0.000 C 
ATOM     19  C   UNL     1     -14.574  -0.389  11.784  0.00  0.00    +0.000 C 
ATOM     20  C   UNL     1     -12.932  -1.567  13.064  0.00  0.00    +0.000 C 
ENDBRANCH  16  17
ENDBRANCH  15  16
ENDBRANCH  14  15
ENDBRANCH  13  14
ENDBRANCH  12  13
ENDBRANCH  11  12
ENDBRANCH   1  11
TORSDOF 15
BEGIN_RES LEU A  10
REMARK  2 active torsions:
REMARK  status: ('A' for Active; 'I' for Inactive)
REMARK    1  A    between atoms: CA   and  CB  
REMARK    2  A    between atoms: CB   and  CG  
ROOT
ATOM      1  CA  LEU A  10     -10.775  -4.871   5.898  1.00 25.14     0.177 C 
ENDROOT
BRANCH   1   2
ATOM      2  CB  LEU A  10     -12.191  -4.387   6.226  1.00 17.87     0.038 C 
BRANCH   2   3
ATOM      3  CG  LEU A  10     -12.387  -2.874   6.104  1.00 24.95    -0.020 C 
ATOM      4  CD2 LEU A  10     -13.673  -2.496   6.757  1.00 26.38     0.009 C 
ATOM      5  CD1 LEU A  10     -12.378  -2.441   4.648  1.00 28.12     0.009 C 
ENDBRANCH   2   3
ENDBRANCH   1   2
END_RES LEU A  10
BEGIN_RES CYS A  12
REMARK  2 active torsions:
REMARK  status: ('A' for Active; 'I' for Inactive)
REMARK    3  A    between atoms: CA   and  CB  
REMARK    4  A    between atoms: CB   and  SG  
ROOT
ATOM      6  CA  CYS A  12      -8.555   0.470   8.750  1.00 23.16     0.185 C 
ENDROOT
BRANCH   6   7
ATOM      7  CB  CYS A  12      -9.828   0.763   9.555  1.00 20.43     0.105 C 
BRANCH   7   8
ATOM      8  SG  CYS A  12     -10.924   2.048   8.879  1.00 24.64    -0.180 SA
ATOM      9  H04 CYS A  12     -11.863   1.478   8.113  1.00 24.64     0.101 HD
ENDBRANCH   7   8
ENDBRANCH   6   7
END_RES CYS A  12
BEGIN_RES GLN A  14
REMARK  3 active torsions:
REMARK  status: ('A' for Active; 'I' for Inactive)
REMARK    5  A    between atoms: CA   and  CB  
REMARK    6  A    between atoms: CB   and  CG  
REMARK    7  A    between atoms: CG   and  CD  
REMARK       I    between atoms: CD   and  NE2 
ROOT
ATOM     10  CA  GLN A  14      -4.645   5.402  11.377  1.00 10.43     0.177 C 
ENDROOT
BRANCH  10  11
ATOM     11  CB  GLN A  14      -5.541   5.549  12.608  1.00 14.45     0.044 C 
BRANCH  11  12
ATOM     12  CG  GLN A  14      -6.490   6.724  12.544  1.00 13.74     0.105 C 
BRANCH  12  13
ATOM     13  CD  GLN A  14      -5.890   7.982  13.125  1.00 16.29     0.215 C 
ATOM     14  NE2 GLN A  14      -6.327   8.347  14.311  1.00  8.57    -0.370 N 
ATOM     15  H06 GLN A  14      -5.961   9.179  14.750  1.00  8.57     0.159 HD
ATOM     16  H07 GLN A  14      -7.028   7.794  14.783  1.00  8.57     0.159 HD
ATOM     17  OE1 GLN A  14      -5.042   8.616  12.515  1.00 23.55    -0.274 OA
ENDBRANCH  12  13
ENDBRANCH  11  12
ENDBRANCH  10  11
END_RES GLN A  14
BEGIN_RES SER A  16
REMARK  2 active torsions:
REMARK  status: ('A' for Active; 'I' for Inactive)
REMARK    8  A    between atoms: CA   and  CB  
REMARK    9  A    between atoms: CB   and  OG  
ROOT
ATOM     18  CA  SER A  16      -1.305  10.019  14.282  1.00  2.34     0.200 C 
ENDROOT
BRANCH  18  19
ATOM     19  CB  SER A  16      -2.242   9.935  15.479  1.00  3.12     0.199 C 
BRANCH  19  20
ATOM     20  OG  SER A  16      -3.479   9.359  15.097  1.00  1.00    -0.398 OA
ATOM     21  H04 SER A  16      -3.373   8.410  14.997  1.00  1.00     0.209 HD
ENDBRANCH  19  20
ENDBRANCH  18  19
END_RES SER A  16
BEGIN_RES LEU A  32
REMARK  2 active torsions:
REMARK  status: ('A' for Active; 'I' for Inactive)
REMARK   10  A    between atoms: CA   and  CB  
REMARK   11  A    between atoms: CB   and  CG  
ROOT
ATOM     22  CA  LEU A  32     -10.272  -4.106   1.587  1.00 16.16     0.177 C 
ENDROOT
BRANCH  22  23
ATOM     23  CB  LEU A  32     -11.613  -3.858   0.880  1.00 12.35     0.038 C 
BRANCH  23  24
ATOM     24  CG  LEU A  32     -12.579  -5.049   1.046  1.00  9.77    -0.020 C 
ATOM     25  CD1 LEU A  32     -13.027  -5.165   2.483  1.00  4.35     0.009 C 
ATOM     26  CD2 LEU A  32     -13.779  -4.896   0.149  1.00 10.60     0.009 C 
ENDBRANCH  23  24
ENDBRANCH  22  23
END_RES LEU A  32
BEGIN_RES HIS A  38
REMARK  2 active torsions:
REMARK  status: ('A' for Active; 'I' for Inactive)
REMARK   12  A    between atoms: CA   and  CB  
REMARK   13  A    between atoms: CB   and  CG  
ROOT
ATOM     27  CA  HIS A  38     -10.959   4.941   1.621  1.00 16.94     0.182 C 
ENDROOT
BRANCH  27  28
ATOM     28  CB  HIS A  38     -11.810   4.840   2.881  1.00 15.47     0.095 C 
BRANCH  28  29
ATOM     29  CG  HIS A  38     -12.979   3.918   2.748  1.00 18.62     0.053 A 
ATOM     30  CD2 HIS A  38     -14.119   4.028   2.024  1.00 15.06     0.116 A 
ATOM     31  NE2 HIS A  38     -14.843   2.883   2.239  1.00 18.12    -0.359 N 
ATOM     32  CE1 HIS A  38     -14.175   2.100   3.064  1.00 14.78     0.207 A 
ATOM     33  H06 HIS A  38     -15.743   2.674   1.831  1.00 18.12     0.166 HD
ATOM     34  ND1 HIS A  38     -13.047   2.700   3.387  1.00 16.58    -0.247 NA
ENDBRANCH  28  29
ENDBRANCH  27  28
END_RES HIS A  38
BEGIN_RES TRP A  63
REMARK  2 active torsions:
REMARK  status: ('A' for Active; 'I' for Inactive)
REMARK   14  A    between atoms: CA   and  CB  
REMARK   15  A    between atoms: CB   and  CG  
ROOT
ATOM     35  CA  TRP A  63     -22.437   6.257   6.543  1.00 27.04     0.181 C 
ENDROOT
BRANCH  35  36
ATOM     36  CB  TRP A  63     -22.360   6.642   5.068  1.00 31.37     0.075 C 
BRANCH  36  37
ATOM     37  CG  TRP A  63     -20.956   6.875   4.551  1.00 34.37    -0.028 A 
ATOM     38  CD2 TRP A  63     -19.885   5.924   4.490  1.00 33.79    -0.002 A 
ATOM     39  CE3 TRP A  63     -19.740   4.595   4.894  1.00 32.99     0.014 A 
ATOM     40  CE2 TRP A  63     -18.790   6.567   3.871  1.00 35.84     0.042 A 
ATOM     41  CZ3 TRP A  63     -18.527   3.958   4.673  1.00 32.93     0.001 A 
ATOM     42  CH2 TRP A  63     -17.457   4.625   4.056  1.00 39.24     0.002 A 
ATOM     43  CZ2 TRP A  63     -17.570   5.927   3.648  1.00 37.99     0.030 A 
ATOM     44  NE1 TRP A  63     -19.182   7.844   3.575  1.00 37.98    -0.365 N 
ATOM     45  H06 TRP A  63     -18.610   8.544   3.126  1.00 37.98     0.165 HD
ATOM     46  CD1 TRP A  63     -20.481   8.018   3.989  1.00 38.16     0.096 A 
ENDBRANCH  36  37
ENDBRANCH  35  36
END_RES TRP A  63
BEGIN_RES LEU A  66
REMARK  2 active torsions:
REMARK  status: ('A' for Active; 'I' for Inactive)
REMARK   16  A    between atoms: CA   and  CB  
REMARK   17  A    between atoms: CB   and  CG  
ROOT
ATOM     47  CA  LEU A  66     -20.004   6.489  11.120  1.00 10.90     0.177 C 
ENDROOT
BRANCH  47  48
ATOM     48  CB  LEU A  66     -19.626   5.453  10.069  1.00 13.57     0.038 C 
BRANCH  48  49
ATOM     49  CG  LEU A  66     -20.173   4.038  10.253  1.00  8.73    -0.020 C 
ATOM     50  CD1 LEU A  66     -19.707   3.139   9.138  1.00 14.23     0.009 C 
ATOM     51  CD2 LEU A  66     -19.691   3.509  11.580  1.00  1.92     0.009 C 
ENDBRANCH  48  49
ENDBRANCH  47  48
END_RES LEU A  66
BEGIN_RES PHE A  70
REMARK  2 active torsions:
REMARK  status: ('A' for Active; 'I' for Inactive)
REMARK   18  A    between atoms: CA   and  CB  
REMARK   19  A    between atoms: CB   and  CG  
ROOT
ATOM     52  CA  PHE A  70     -14.974   9.434  13.165  1.00  8.78     0.180 C 
ENDROOT
BRANCH  52  53
ATOM     53  CB  PHE A  70     -14.707   9.132  11.681  1.00  6.33     0.073 C 
BRANCH  53  54
ATOM     54  CG  PHE A  70     -13.964   7.843  11.457  1.00  3.42    -0.056 A 
ATOM     55  CD1 PHE A  70     -13.468   7.108  12.523  1.00 13.88     0.007 A 
ATOM     56  CE1 PHE A  70     -12.734   5.929  12.305  1.00 12.71     0.001 A 
ATOM     57  CZ  PHE A  70     -12.495   5.482  11.005  1.00  4.21     0.000 A 
ATOM     58  CE2 PHE A  70     -12.986   6.205   9.934  1.00  2.83     0.001 A 
ATOM     59  CD2 PHE A  70     -13.719   7.382  10.163  1.00  1.00     0.007 A 
ENDBRANCH  53  54
ENDBRANCH  52  53
END_RES PHE A  70
BEGIN_RES TYR A  73
REMARK  3 active torsions:
REMARK  status: ('A' for Active; 'I' for Inactive)
REMARK   20  A    between atoms: CA   and  CB  
REMARK   21  A    between atoms: CB   and  CG  
REMARK   22  A    between atoms: CZ   and  OH  
ROOT
ATOM     60  CA  TYR A  73     -13.212  10.166  17.260  1.00 12.17     0.180 C 
ENDROOT
BRANCH  60  61
ATOM     61  CB  TYR A  73     -13.301   8.846  16.517  1.00 12.84     0.073 C 
BRANCH  61  62
ATOM     62  CG  TYR A  73     -13.427   7.673  17.425  1.00 15.89    -0.056 A 
ATOM     63  CD1 TYR A  73     -13.622   6.404  16.924  1.00 16.00     0.010 A 
ATOM     64  CE1 TYR A  73     -13.771   5.308  17.774  1.00 13.55     0.037 A 
ATOM     65  CZ  TYR A  73     -13.724   5.500  19.140  1.00 18.13     0.065 A 
ATOM     66  CE2 TYR A  73     -13.530   6.756  19.665  1.00 15.89     0.037 A 
ATOM     67  CD2 TYR A  73     -13.383   7.836  18.805  1.00 21.86     0.010 A 
BRANCH  65  68
ATOM     68  OH  TYR A  73     -13.863   4.434  19.995  1.00 12.12    -0.361 OA
ATOM     69  H08 TYR A  73     -14.430   3.772  19.592  1.00 12.12     0.217 HD
ENDBRANCH  65  68
ENDBRANCH  61  62
ENDBRANCH  60  61
END_RES TYR A  73
BEGIN_RES PHE A  77
REMARK  2 active torsions:
REMARK  status: ('A' for Active; 'I' for Inactive)
REMARK   23  A    between atoms: CA   and  CB  
REMARK   24  A    between atoms: CB   and  CG  
ROOT
ATOM     70  CA  PHE A  77      -8.400  10.581  20.110  1.00 17.17     0.180 C 
ENDROOT
BRANCH  70  71
ATOM     71  CB  PHE A  77      -8.228   9.750  18.851  1.00 10.44     0.073 C 
BRANCH  71  72
ATOM     72  CG  PHE A  77      -8.859   8.396  18.932  1.00  6.07    -0.056 A 
ATOM     73  CD2 PHE A  77      -8.953   7.738  20.137  1.00  9.61     0.007 A 
ATOM     74  CE2 PHE A  77      -9.539   6.480  20.222  1.00  1.00     0.001 A 
ATOM     75  CZ  PHE A  77     -10.042   5.874  19.083  1.00  1.92     0.000 A 
ATOM     76  CE1 PHE A  77      -9.958   6.520  17.870  1.00  9.25     0.001 A 
ATOM     77  CD1 PHE A  77      -9.365   7.780  17.799  1.00  9.63     0.007 A 
ENDBRANCH  71  72
ENDBRANCH  70  71
END_RES PHE A  77
BEGIN_RES LEU A  96
REMARK  2 active torsions:
REMARK  status: ('A' for Active; 'I' for Inactive)
REMARK   25  A    between atoms: CA   and  CB  
REMARK   26  A    between atoms: CB   and  CG  
ROOT
ATOM     78  CA  LEU A  96       0.717   6.481  17.359  1.00 16.08     0.177 C 
ENDROOT
BRANCH  78  79
ATOM     79  CB  LEU A  96      -0.370   7.101  18.230  1.00 18.83     0.038 C 
BRANCH  79  80
ATOM     80  CG  LEU A  96      -0.153   6.930  19.733  1.00 19.03    -0.020 C 
ATOM     81  CD1 LEU A  96      -1.405   7.365  20.459  1.00 28.17     0.009 C 
ATOM     82  CD2 LEU A  96       0.114   5.481  20.066  1.00 22.01     0.009 C 
ENDBRANCH  79  80
ENDBRANCH  78  79
END_RES LEU A  96
BEGIN_RES VAL A  98
REMARK  1 active torsions:
REMARK  status: ('A' for Active; 'I' for Inactive)
REMARK   27  A    between atoms: CA   and  CB  
ROOT
ATOM     83  CA  VAL A  98      -3.928   2.082  14.897  1.00 19.83     0.180 C 
ENDROOT
BRANCH  83  84
ATOM     84  CB  VAL A  98      -5.203   2.807  15.281  1.00 17.87     0.009 C 
ATOM     85  CG2 VAL A  98      -5.222   3.068  16.765  1.00 29.90     0.012 C 
ATOM     86  CG1 VAL A  98      -6.401   1.979  14.865  1.00 14.79     0.012 C 
ENDBRANCH  83  84
END_RES VAL A  98
BEGIN_RES ASN A 112
REMARK  2 active torsions:
REMARK  status: ('A' for Active; 'I' for Inactive)
REMARK   28  A    between atoms: CA   and  CB  
REMARK   29  A    between atoms: CB   and  CG  
REMARK       I    between atoms: CG   and  ND2 
ROOT
ATOM     87  CA  ASN A 112     -11.790  -8.793  14.069  1.00 37.70     0.185 C 
ENDROOT
BRANCH  87  88
ATOM     88  CB  ASN A 112     -12.992  -7.945  14.465  1.00 26.24     0.137 C 
BRANCH  88  89
ATOM     89  CG  ASN A 112     -13.807  -8.557  15.582  1.00 21.77     0.217 C 
ATOM     90  ND2 ASN A 112     -14.952  -9.139  15.223  1.00  9.31    -0.370 N 
ATOM     91  H04 ASN A 112     -15.542  -9.565  15.924  1.00  9.31     0.159 HD
ATOM     92  H05 ASN A 112     -15.228  -9.155  14.252  1.00  9.31     0.159 HD
ATOM     93  OD1 ASN A 112     -13.419  -8.506  16.755  1.00 21.61    -0.274 OA
ENDBRANCH  88  89
ENDBRANCH  87  88
END_RES ASN A 112
BEGIN_RES PHE A 114
REMARK  2 active torsions:
REMARK  status: ('A' for Active; 'I' for Inactive)
REMARK   30  A    between atoms: CA   and  CB  
REMARK   31  A    between atoms: CB   and  CG  
ROOT
ATOM     94  CA  PHE A 114      -7.754  -3.619  17.012  1.00 26.06     0.180 C 
ENDROOT
BRANCH  94  95
ATOM     95  CB  PHE A 114      -8.890  -3.080  17.867  1.00 19.95     0.073 C 
BRANCH  95  96
ATOM     96  CG  PHE A 114      -9.176  -1.633  17.628  1.00 17.65    -0.056 A 
ATOM     97  CD1 PHE A 114      -8.141  -0.705  17.550  1.00 13.01     0.007 A 
ATOM     98  CE1 PHE A 114      -8.407   0.644  17.358  1.00  6.74     0.001 A 
ATOM     99  CZ  PHE A 114      -9.722   1.085  17.236  1.00  6.27     0.000 A 
ATOM    100  CE2 PHE A 114     -10.760   0.170  17.310  1.00 17.36     0.001 A 
ATOM    101  CD2 PHE A 114     -10.485  -1.187  17.506  1.00 18.39     0.007 A 
ENDBRANCH  95  96
ENDBRANCH  94  95
END_RES PHE A 114
BEGIN_RES VAL A 116
REMARK  1 active torsions:
REMARK  status: ('A' for Active; 'I' for Inactive)
REMARK   32  A    between atoms: CA   and  CB  
ROOT
ATOM    102  CA  VAL A 116      -2.467   0.283  18.565  1.00 13.48     0.180 C 
ENDROOT
BRANCH 102 103
ATOM    103  CB  VAL A 116      -3.101   1.238  19.599  1.00 20.86     0.009 C 
ATOM    104  CG1 VAL A 116      -2.724   2.683  19.260  1.00 25.01     0.012 C 
ATOM    105  CG2 VAL A 116      -4.599   1.052  19.656  1.00 25.34     0.012 C 
ENDBRANCH 102 103
END_RES VAL A 116
BEGIN_RES ILE A 123
REMARK  2 active torsions:
REMARK  status: ('A' for Active; 'I' for Inactive)
REMARK   33  A    between atoms: CA   and  CB  
REMARK   34  A    between atoms: CB   and  CG1 
ROOT
ATOM    106  CA  ILE A 123       1.557  -1.626  23.222  1.00 15.07     0.180 C 
ENDROOT
BRANCH 106 107
ATOM    107  CB  ILE A 123       1.697  -0.112  23.461  1.00 14.41     0.013 C 
ATOM    108  CG2 ILE A 123       3.092   0.204  23.971  1.00 18.35     0.012 C 
BRANCH 107 109
ATOM    109  CG1 ILE A 123       1.420   0.656  22.171  1.00 15.23     0.002 C 
ATOM    110  CD1 ILE A 123       0.204   1.547  22.246  1.00 14.67     0.005 C 
ENDBRANCH 107 109
ENDBRANCH 106 107
END_RES ILE A 123
BEGIN_RES LEU A 124
REMARK  2 active torsions:
REMARK  status: ('A' for Active; 'I' for Inactive)
REMARK   35  A    between atoms: CA   and  CB  
REMARK   36  A    between atoms: CB   and  CG  
ROOT
ATOM    111  CA  LEU A 124      -2.057  -2.686  23.524  1.00 11.86     0.177 C 
ENDROOT
BRANCH 111 112
ATOM    112  CB  LEU A 124      -2.698  -1.652  24.429  1.00 14.60     0.038 C 
BRANCH 112 113
ATOM    113  CG  LEU A 124      -2.616  -0.250  23.843  1.00 16.19    -0.020 C 
ATOM    114  CD1 LEU A 124      -4.021   0.187  23.389  1.00 22.07     0.009 C 
ATOM    115  CD2 LEU A 124      -2.039   0.691  24.871  1.00  9.12     0.009 C 
ENDBRANCH 112 113
ENDBRANCH 111 112
END_RES LEU A 124
BEGIN_RES PHE A 126
REMARK  2 active torsions:
REMARK  status: ('A' for Active; 'I' for Inactive)
REMARK   37  A    between atoms: CA   and  CB  
REMARK   38  A    between atoms: CB   and  CG  
ROOT
ATOM    116  CA  PHE A 126      -8.784  -4.792  22.233  1.00 23.15     0.180 C 
ENDROOT
BRANCH 116 117
ATOM    117  CB  PHE A 126      -9.823  -4.011  21.461  1.00 20.65     0.073 C 
BRANCH 117 118
ATOM    118  CG  PHE A 126     -10.953  -3.550  22.295  1.00 23.65    -0.056 A 
ATOM    119  CD2 PHE A 126     -10.778  -2.541  23.226  1.00 36.63     0.007 A 
ATOM    120  CE2 PHE A 126     -11.851  -2.103  24.015  1.00 36.27     0.001 A 
ATOM    121  CZ  PHE A 126     -13.101  -2.684  23.866  1.00 18.06     0.000 A 
ATOM    122  CE1 PHE A 126     -13.280  -3.689  22.936  1.00  5.50     0.001 A 
ATOM    123  CD1 PHE A 126     -12.208  -4.116  22.153  1.00 15.29     0.007 A 
ENDBRANCH 117 118
ENDBRANCH 116 117
END_RES PHE A 126
BEGIN_RES TRP A 131
REMARK  2 active torsions:
REMARK  status: ('A' for Active; 'I' for Inactive)
REMARK   39  A    between atoms: CA   and  CB  
REMARK   40  A    between atoms: CB   and  CG  
ROOT
ATOM    124  CA  TRP A 131      -8.096  -3.335  26.542  1.00 14.52     0.181 C 
ENDROOT
BRANCH 124 125
ATOM    125  CB  TRP A 131      -7.651  -1.877  26.607  1.00 13.06     0.075 C 
BRANCH 125 126
ATOM    126  CG  TRP A 131      -8.047  -1.052  25.403  1.00 16.97    -0.028 A 
ATOM    127  CD2 TRP A 131      -9.127  -0.117  25.328  1.00 11.34    -0.002 A 
ATOM    128  CE2 TRP A 131      -9.128   0.425  24.028  1.00  5.87     0.042 A 
ATOM    129  CE3 TRP A 131     -10.096   0.314  26.241  1.00  3.80     0.014 A 
ATOM    130  CZ2 TRP A 131     -10.060   1.379  23.617  1.00  1.35     0.030 A 
ATOM    131  NE1 TRP A 131      -8.098  -0.155  23.340  1.00 13.90    -0.365 N 
ATOM    132  CH2 TRP A 131     -10.999   1.785  24.534  1.00  1.00     0.002 A 
ATOM    133  CZ3 TRP A 131     -11.023   1.258  25.839  1.00  1.00     0.001 A 
ATOM    134  CD1 TRP A 131      -7.452  -1.041  24.171  1.00 17.22     0.096 A 
ATOM    135  H07 TRP A 131      -7.852   0.036  22.379  1.00 13.90     0.165 HD
ENDBRANCH 125 126
ENDBRANCH 124 125
END_RES TRP A 131
BEGIN_RES LEU A 148
REMARK  2 active torsions:
REMARK  status: ('A' for Active; 'I' for Inactive)
REMARK   41  A    between atoms: CA   and  CB  
REMARK   42  A    between atoms: CB   and  CG  
ROOT
ATOM    136  CA  LEU A 148      -9.018   3.259  29.295  1.00 16.99     0.177 C 
ENDROOT
BRANCH 136 137
ATOM    137  CB  LEU A 148      -8.166   2.574  28.236  1.00  6.39     0.038 C 
BRANCH 137 138
ATOM    138  CG  LEU A 148      -7.986   3.185  26.862  1.00  1.00    -0.020 C 
ATOM    139  CD2 LEU A 148      -6.547   3.107  26.441  1.00  1.00     0.009 C 
ATOM    140  CD1 LEU A 148      -8.448   4.630  26.919  1.00  2.71     0.009 C 
ENDBRANCH 137 138
ENDBRANCH 136 137
END_RES LEU A 148
BEGIN_RES THR A 154
REMARK  2 active torsions:
REMARK  status: ('A' for Active; 'I' for Inactive)
REMARK   43  A    between atoms: CA   and  CB  
REMARK   44  A    between atoms: CB   and  OG1 
ROOT
ATOM    141  CA  THR A 154     -15.990   3.959  24.426  1.00 20.45     0.205 C 
ENDROOT
BRANCH 141 142
ATOM    142  CB  THR A 154     -14.777   4.829  24.694  1.00 16.79     0.146 C 
ATOM    143  CG2 THR A 154     -13.678   4.517  23.697  1.00 20.24     0.042 C 
BRANCH 142 144
ATOM    144  OG1 THR A 154     -15.152   6.205  24.553  1.00 18.84    -0.393 OA
ATOM    145  H06 THR A 154     -16.100   6.266  24.416  1.00 18.84     0.210 HD
ENDBRANCH 142 144
ENDBRANCH 141 142
END_RES THR A 154
BEGIN_RES VAL A 158
REMARK  1 active torsions:
REMARK  status: ('A' for Active; 'I' for Inactive)
REMARK   45  A    between atoms: CA   and  CB  
ROOT
ATOM    146  CA  VAL A 158     -15.487  -0.189  19.892  1.00 15.49     0.180 C 
ENDROOT
BRANCH 146 147
ATOM    147  CB  VAL A 158     -14.291  -0.273  20.822  1.00  6.52     0.009 C 
ATOM    148  CG1 VAL A 158     -13.246  -1.217  20.273  1.00  1.00     0.012 C 
ATOM    149  CG2 VAL A 158     -13.722   1.101  20.998  1.00  5.99     0.012 C 
ENDBRANCH 146 147
END_RES VAL A 158
BEGIN_RES LEU A 161
REMARK  2 active torsions:
REMARK  status: ('A' for Active; 'I' for Inactive)
REMARK   46  A    between atoms: CA   and  CB  
REMARK   47  A    between atoms: CB   and  CG  
ROOT
ATOM    150  CA  LEU A 161     -18.031  -1.858  15.935  1.00 13.31     0.177 C 
ENDROOT
BRANCH 150 151
ATOM    151  CB  LEU A 161     -17.046  -0.706  16.001  1.00 14.13     0.038 C 
BRANCH 151 152
ATOM    152  CG  LEU A 161     -17.457   0.575  15.286  1.00 19.39    -0.020 C 
ATOM    153  CD2 LEU A 161     -18.793   1.055  15.801  1.00 27.75     0.009 C 
ATOM    154  CD1 LEU A 161     -17.542   0.303  13.809  1.00 18.59     0.009 C 
ENDBRANCH 151 152
ENDBRANCH 150 151
END_RES LEU A 161
BEGIN_RES GLN A 168
REMARK  3 active torsions:
REMARK  status: ('A' for Active; 'I' for Inactive)
REMARK   48  A    between atoms: CA   and  CB  
REMARK   49  A    between atoms: CB   and  CG  
REMARK   50  A    between atoms: CG   and  CD  
REMARK       I    between atoms: CD   and  NE2 
ROOT
ATOM    155  CA  GLN A 168     -22.035  -6.020   8.155  1.00 30.94     0.177 C 
ENDROOT
BRANCH 155 156
ATOM    156  CB  GLN A 168     -23.054  -5.218   8.946  1.00 41.76     0.044 C 
BRANCH 156 157
ATOM    157  CG  GLN A 168     -24.481  -5.430   8.520  1.00 61.20     0.105 C 
BRANCH 157 158
ATOM    158  CD  GLN A 168     -24.981  -4.302   7.637  1.00 75.49     0.215 C 
ATOM    159  NE2 GLN A 168     -24.830  -4.471   6.322  1.00 85.00    -0.370 N 
ATOM    160  H06 GLN A 168     -25.140  -3.754   5.682  1.00 85.00     0.159 HD
ATOM    161  H07 GLN A 168     -24.404  -5.316   5.967  1.00 85.00     0.159 HD
ATOM    162  OE1 GLN A 168     -25.493  -3.286   8.127  1.00 73.64    -0.274 OA
ENDBRANCH 157 158
ENDBRANCH 156 157
ENDBRANCH 155 156
END_RES GLN A 168
ENDMDL
MODEL 6
REMARK VINA RESULT:      -7.2      1.594      4.444
REMARK  Name = human_CD1d_CTAB_pred.rank_0
REMARK  15 active torsions:
REMARK  status: ('A' for Active; 'I' for Inactive)
REMARK    1  A    between atoms: N_2  and  C_17
REMARK    2  A    between atoms: C_3  and  C_4
REMARK    3  A    between atoms: C_4  and  C_5
REMARK    4  A    between atoms: C_5  and  C_6
REMARK    5  A    between atoms: C_6  and  C_7
REMARK    6  A    between atoms: C_7  and  C_8
REMARK    7  A    between atoms: C_8  and  C_9
REMARK    8  A    between atoms: C_9  and  C_10
REMARK    9  A    between atoms: C_10  and  C_11
REMARK   10  A    between atoms: C_11  and  C_12
REMARK   11  A    between atoms: C_12  and  C_13
REMARK   12  A    between atoms: C_13  and  C_14
REMARK   13  A    between atoms: C_14  and  C_15
REMARK   14  A    between atoms: C_15  and  C_16
REMARK   15  A    between atoms: C_16  and  C_17
REMARK                            x       y       z     vdW  Elec       q    Type
REMARK                         _______ _______ _______ _____ _____    ______ ____
ROOT
ATOM      1  C   UNL     1     -15.550   4.188  14.364  0.00  0.00    +0.000 C 
ENDROOT
BRANCH   1   2
ATOM      2  C   UNL     1     -16.251   3.863  13.079  0.00  0.00    +0.000 C 
BRANCH   2   3
ATOM      3  C   UNL     1     -16.605   5.124  12.314  0.00  0.00    +0.000 C 
BRANCH   3   4
ATOM      4  C   UNL     1     -16.356   4.940  10.832  0.00  0.00    +0.000 C 
BRANCH   4   5
ATOM      5  C   UNL     1     -15.789   3.526  10.577  0.00  0.00    +0.000 C 
BRANCH   5   6
ATOM      6  C   UNL     1     -15.658   3.252   9.088  0.00  0.00    +0.000 C 
BRANCH   6   7
ATOM      7  C   UNL     1     -16.384   4.349   8.310  0.00  0.00    +0.000 C 
BRANCH   7   8
ATOM      8  C   UNL     1     -15.435   5.042   7.359  0.00  0.00    +0.000 C 
BRANCH   8  10
ATOM      9  C   UNL     1     -17.404   6.534   7.475  0.00  0.00    +0.000 C 
ATOM     10  C   UNL     1     -15.964   6.441   7.084  0.00  0.00    +0.000 C 
ENDBRANCH   8  10
ENDBRANCH   7   8
ENDBRANCH   6   7
ENDBRANCH   5   6
ENDBRANCH   4   5
ENDBRANCH   3   4
ENDBRANCH   2   3
ENDBRANCH   1   2
BRANCH   1  11
ATOM     11  C   UNL     1     -14.851   2.964  14.919  0.00  0.00    +0.000 C 
BRANCH  11  12
ATOM     12  C   UNL     1     -14.180   2.205  13.796  0.00  0.00    +0.000 C 
BRANCH  12  13
ATOM     13  C   UNL     1     -12.697   2.092  14.077  0.00  0.00    +0.000 C 
BRANCH  13  14
ATOM     14  C   UNL     1     -12.316   3.022  15.217  0.00  0.00    +0.000 C 
BRANCH  14  15
ATOM     15  C   UNL     1     -10.979   3.718  14.897  0.00  0.00    +0.000 C 
BRANCH  15  16
ATOM     16  C   UNL     1     -10.184   2.910  13.881  0.00  0.00    +0.000 C 
BRANCH  16  17
ATOM     17  N   UNL     1      -8.985   3.652  13.472  0.00  0.00    +0.000 N 
ATOM     18  C   UNL     1      -8.573   4.461  14.604  0.00  0.00    +0.000 C 
ATOM     19  C   UNL     1      -9.320   4.531  12.377  0.00  0.00    +0.000 C 
ATOM     20  C   UNL     1      -7.887   2.758  13.105  0.00  0.00    +0.000 C 
ENDBRANCH  16  17
ENDBRANCH  15  16
ENDBRANCH  14  15
ENDBRANCH  13  14
ENDBRANCH  12  13
ENDBRANCH  11  12
ENDBRANCH   1  11
TORSDOF 15
BEGIN_RES LEU A  10
REMARK  2 active torsions:
REMARK  status: ('A' for Active; 'I' for Inactive)
REMARK    1  A    between atoms: CA   and  CB  
REMARK    2  A    between atoms: CB   and  CG  
ROOT
ATOM      1  CA  LEU A  10     -10.775  -4.871   5.898  1.00 25.14     0.177 C 
ENDROOT
BRANCH   1   2
ATOM      2  CB  LEU A  10     -12.191  -4.387   6.226  1.00 17.87     0.038 C 
BRANCH   2   3
ATOM      3  CG  LEU A  10     -12.396  -2.879   6.070  1.00 24.95    -0.020 C 
ATOM      4  CD2 LEU A  10     -13.675  -2.491   6.732  1.00 26.38     0.009 C 
ATOM      5  CD1 LEU A  10     -12.411  -2.482   4.604  1.00 28.12     0.009 C 
ENDBRANCH   2   3
ENDBRANCH   1   2
END_RES LEU A  10
BEGIN_RES CYS A  12
REMARK  2 active torsions:
REMARK  status: ('A' for Active; 'I' for Inactive)
REMARK    3  A    between atoms: CA   and  CB  
REMARK    4  A    between atoms: CB   and  SG  
ROOT
ATOM      6  CA  CYS A  12      -8.555   0.470   8.750  1.00 23.16     0.185 C 
ENDROOT
BRANCH   6   7
ATOM      7  CB  CYS A  12      -9.828   0.763   9.555  1.00 20.43     0.105 C 
BRANCH   7   8
ATOM      8  SG  CYS A  12     -10.921   2.052   8.882  1.00 24.64    -0.180 SA
ATOM      9  H04 CYS A  12     -11.957   2.237   9.710  1.00 24.64     0.101 HD
ENDBRANCH   7   8
ENDBRANCH   6   7
END_RES CYS A  12
BEGIN_RES GLN A  14
REMARK  3 active torsions:
REMARK  status: ('A' for Active; 'I' for Inactive)
REMARK    5  A    between atoms: CA   and  CB  
REMARK    6  A    between atoms: CB   and  CG  
REMARK    7  A    between atoms: CG   and  CD  
REMARK       I    between atoms: CD   and  NE2 
ROOT
ATOM     10  CA  GLN A  14      -4.645   5.402  11.377  1.00 10.43     0.177 C 
ENDROOT
BRANCH  10  11
ATOM     11  CB  GLN A  14      -5.541   5.549  12.608  1.00 14.45     0.044 C 
BRANCH  11  12
ATOM     12  CG  GLN A  14      -6.502   6.713  12.536  1.00 13.74     0.105 C 
BRANCH  12  13
ATOM     13  CD  GLN A  14      -5.943   7.964  13.171  1.00 16.29     0.215 C 
ATOM     14  NE2 GLN A  14      -5.327   8.804  12.368  1.00  8.57    -0.370 N 
ATOM     15  H06 GLN A  14      -4.934   9.658  12.736  1.00  8.57     0.159 HD
ATOM     16  H07 GLN A  14      -5.249   8.595  11.383  1.00  8.57     0.159 HD
ATOM     17  OE1 GLN A  14      -6.065   8.172  14.368  1.00 23.55    -0.274 OA
ENDBRANCH  12  13
ENDBRANCH  11  12
ENDBRANCH  10  11
END_RES GLN A  14
BEGIN_RES SER A  16
REMARK  2 active torsions:
REMARK  status: ('A' for Active; 'I' for Inactive)
REMARK    8  A    between atoms: CA   and  CB  
REMARK    9  A    between atoms: CB   and  OG  
ROOT
ATOM     18  CA  SER A  16      -1.305  10.019  14.282  1.00  2.34     0.200 C 
ENDROOT
BRANCH  18  19
ATOM     19  CB  SER A  16      -2.242   9.935  15.479  1.00  3.12     0.199 C 
BRANCH  19  20
ATOM     20  OG  SER A  16      -3.483   9.370  15.094  1.00  1.00    -0.398 OA
ATOM     21  H04 SER A  16      -4.184  10.009  15.239  1.00  1.00     0.209 HD
ENDBRANCH  19  20
ENDBRANCH  18  19
END_RES SER A  16
BEGIN_RES LEU A  32
REMARK  2 active torsions:
REMARK  status: ('A' for Active; 'I' for Inactive)
REMARK   10  A    between atoms: CA   and  CB  
REMARK   11  A    between atoms: CB   and  CG  
ROOT
ATOM     22  CA  LEU A  32     -10.272  -4.106   1.587  1.00 16.16     0.177 C 
ENDROOT
BRANCH  22  23
ATOM     23  CB  LEU A  32     -11.613  -3.858   0.880  1.00 12.35     0.038 C 
BRANCH  23  24
ATOM     24  CG  LEU A  32     -12.562  -5.067   1.008  1.00  9.77    -0.020 C 
ATOM     25  CD1 LEU A  32     -13.033  -5.217   2.434  1.00  4.35     0.009 C 
ATOM     26  CD2 LEU A  32     -13.749  -4.917   0.093  1.00 10.60     0.009 C 
ENDBRANCH  23  24
ENDBRANCH  22  23
END_RES LEU A  32
BEGIN_RES HIS A  38
REMARK  2 active torsions:
REMARK  status: ('A' for Active; 'I' for Inactive)
REMARK   12  A    between atoms: CA   and  CB  
REMARK   13  A    between atoms: CB   and  CG  
ROOT
ATOM     27  CA  HIS A  38     -10.959   4.941   1.621  1.00 16.94     0.182 C 
ENDROOT
BRANCH  27  28
ATOM     28  CB  HIS A  38     -11.810   4.840   2.881  1.00 15.47     0.095 C 
BRANCH  28  29
ATOM     29  CG  HIS A  38     -13.006   3.957   2.732  1.00 18.62     0.053 A 
ATOM     30  CD2 HIS A  38     -14.169   4.141   2.063  1.00 15.06     0.116 A 
ATOM     31  NE2 HIS A  38     -14.913   3.001   2.229  1.00 18.12    -0.359 N 
ATOM     32  CE1 HIS A  38     -14.235   2.148   2.973  1.00 14.78     0.207 A 
ATOM     33  H06 HIS A  38     -15.833   2.840   1.843  1.00 18.12     0.166 HD
ATOM     34  ND1 HIS A  38     -13.081   2.700   3.292  1.00 16.58    -0.247 NA
ENDBRANCH  28  29
ENDBRANCH  27  28
END_RES HIS A  38
BEGIN_RES TRP A  63
REMARK  2 active torsions:
REMARK  status: ('A' for Active; 'I' for Inactive)
REMARK   14  A    between atoms: CA   and  CB  
REMARK   15  A    between atoms: CB   and  CG  
ROOT
ATOM     35  CA  TRP A  63     -22.437   6.257   6.543  1.00 27.04     0.181 C 
ENDROOT
BRANCH  35  36
ATOM     36  CB  TRP A  63     -22.360   6.642   5.068  1.00 31.37     0.075 C 
BRANCH  36  37
ATOM     37  CG  TRP A  63     -20.955   6.699   4.505  1.00 34.37    -0.028 A 
ATOM     38  CD2 TRP A  63     -19.922   5.716   4.650  1.00 33.79    -0.002 A 
ATOM     39  CE3 TRP A  63     -19.822   4.504   5.337  1.00 32.99     0.014 A 
ATOM     40  CE2 TRP A  63     -18.812   6.163   3.899  1.00 35.84     0.042 A 
ATOM     41  CZ3 TRP A  63     -18.638   3.786   5.256  1.00 32.93     0.001 A 
ATOM     42  CH2 TRP A  63     -17.552   4.257   4.501  1.00 39.24     0.002 A 
ATOM     43  CZ2 TRP A  63     -17.621   5.441   3.816  1.00 37.99     0.030 A 
ATOM     44  NE1 TRP A  63     -19.160   7.357   3.331  1.00 37.98    -0.365 N 
ATOM     45  H06 TRP A  63     -18.567   7.918   2.735  1.00 37.98     0.165 HD
ATOM     46  CD1 TRP A  63     -20.445   7.670   3.702  1.00 38.16     0.096 A 
ENDBRANCH  36  37
ENDBRANCH  35  36
END_RES TRP A  63
BEGIN_RES LEU A  66
REMARK  2 active torsions:
REMARK  status: ('A' for Active; 'I' for Inactive)
REMARK   16  A    between atoms: CA   and  CB  
REMARK   17  A    between atoms: CB   and  CG  
ROOT
ATOM     47  CA  LEU A  66     -20.004   6.489  11.120  1.00 10.90     0.177 C 
ENDROOT
BRANCH  47  48
ATOM     48  CB  LEU A  66     -19.626   5.453  10.069  1.00 13.57     0.038 C 
BRANCH  48  49
ATOM     49  CG  LEU A  66     -20.176   4.039  10.251  1.00  8.73    -0.020 C 
ATOM     50  CD1 LEU A  66     -19.662   3.126   9.169  1.00 14.23     0.009 C 
ATOM     51  CD2 LEU A  66     -19.747   3.530  11.604  1.00  1.92     0.009 C 
ENDBRANCH  48  49
ENDBRANCH  47  48
END_RES LEU A  66
BEGIN_RES PHE A  70
REMARK  2 active torsions:
REMARK  status: ('A' for Active; 'I' for Inactive)
REMARK   18  A    between atoms: CA   and  CB  
REMARK   19  A    between atoms: CB   and  CG  
ROOT
ATOM     52  CA  PHE A  70     -14.974   9.434  13.165  1.00  8.78     0.180 C 
ENDROOT
BRANCH  52  53
ATOM     53  CB  PHE A  70     -14.707   9.132  11.681  1.00  6.33     0.073 C 
BRANCH  53  54
ATOM     54  CG  PHE A  70     -14.003   7.822  11.454  1.00  3.42    -0.056 A 
ATOM     55  CD1 PHE A  70     -13.562   7.053  12.521  1.00 13.88     0.007 A 
ATOM     56  CE1 PHE A  70     -12.863   5.853  12.301  1.00 12.71     0.001 A 
ATOM     57  CZ  PHE A  70     -12.604   5.419  11.000  1.00  4.21     0.000 A 
ATOM     58  CE2 PHE A  70     -13.041   6.176   9.929  1.00  2.83     0.001 A 
ATOM     59  CD2 PHE A  70     -13.739   7.374  10.159  1.00  1.00     0.007 A 
ENDBRANCH  53  54
ENDBRANCH  52  53
END_RES PHE A  70
BEGIN_RES TYR A  73
REMARK  3 active torsions:
REMARK  status: ('A' for Active; 'I' for Inactive)
REMARK   20  A    between atoms: CA   and  CB  
REMARK   21  A    between atoms: CB   and  CG  
REMARK   22  A    between atoms: CZ   and  OH  
ROOT
ATOM     60  CA  TYR A  73     -13.212  10.166  17.260  1.00 12.17     0.180 C 
ENDROOT
BRANCH  60  61
ATOM     61  CB  TYR A  73     -13.301   8.846  16.517  1.00 12.84     0.073 C 
BRANCH  61  62
ATOM     62  CG  TYR A  73     -13.532   7.684  17.418  1.00 15.89    -0.056 A 
ATOM     63  CD1 TYR A  73     -13.499   7.828  18.787  1.00 16.00     0.010 A 
ATOM     64  CE1 TYR A  73     -13.685   6.735  19.633  1.00 13.55     0.037 A 
ATOM     65  CZ  TYR A  73     -13.904   5.486  19.087  1.00 18.13     0.065 A 
ATOM     66  CE2 TYR A  73     -13.944   5.315  17.723  1.00 15.89     0.037 A 
ATOM     67  CD2 TYR A  73     -13.757   6.415  16.895  1.00 21.86     0.010 A 
BRANCH  65  68
ATOM     68  OH  TYR A  73     -14.096   4.397  19.901  1.00 12.12    -0.361 OA
ATOM     69  H08 TYR A  73     -13.639   3.637  19.532  1.00 12.12     0.217 HD
ENDBRANCH  65  68
ENDBRANCH  61  62
ENDBRANCH  60  61
END_RES TYR A  73
BEGIN_RES PHE A  77
REMARK  2 active torsions:
REMARK  status: ('A' for Active; 'I' for Inactive)
REMARK   23  A    between atoms: CA   and  CB  
REMARK   24  A    between atoms: CB   and  CG  
ROOT
ATOM     70  CA  PHE A  77      -8.400  10.581  20.110  1.00 17.17     0.180 C 
ENDROOT
BRANCH  70  71
ATOM     71  CB  PHE A  77      -8.228   9.750  18.851  1.00 10.44     0.073 C 
BRANCH  71  72
ATOM     72  CG  PHE A  77      -7.110   8.759  18.931  1.00  6.07    -0.056 A 
ATOM     73  CD2 PHE A  77      -6.052   8.826  18.053  1.00  9.61     0.007 A 
ATOM     74  CE2 PHE A  77      -5.008   7.911  18.121  1.00  1.00     0.001 A 
ATOM     75  CZ  PHE A  77      -5.022   6.916  19.084  1.00  1.92     0.000 A 
ATOM     76  CE1 PHE A  77      -6.072   6.836  19.971  1.00  9.25     0.001 A 
ATOM     77  CD1 PHE A  77      -7.114   7.759  19.890  1.00  9.63     0.007 A 
ENDBRANCH  71  72
ENDBRANCH  70  71
END_RES PHE A  77
BEGIN_RES LEU A  96
REMARK  2 active torsions:
REMARK  status: ('A' for Active; 'I' for Inactive)
REMARK   25  A    between atoms: CA   and  CB  
REMARK   26  A    between atoms: CB   and  CG  
ROOT
ATOM     78  CA  LEU A  96       0.717   6.481  17.359  1.00 16.08     0.177 C 
ENDROOT
BRANCH  78  79
ATOM     79  CB  LEU A  96      -0.370   7.101  18.230  1.00 18.83     0.038 C 
BRANCH  79  80
ATOM     80  CG  LEU A  96      -0.160   6.919  19.733  1.00 19.03    -0.020 C 
ATOM     81  CD1 LEU A  96       0.565   8.129  20.274  1.00 28.17     0.009 C 
ATOM     82  CD2 LEU A  96      -1.490   6.801  20.441  1.00 22.01     0.009 C 
ENDBRANCH  79  80
ENDBRANCH  78  79
END_RES LEU A  96
BEGIN_RES VAL A  98
REMARK  1 active torsions:
REMARK  status: ('A' for Active; 'I' for Inactive)
REMARK   27  A    between atoms: CA   and  CB  
ROOT
ATOM     83  CA  VAL A  98      -3.928   2.082  14.897  1.00 19.83     0.180 C 
ENDROOT
BRANCH  83  84
ATOM     84  CB  VAL A  98      -5.203   2.807  15.281  1.00 17.87     0.009 C 
ATOM     85  CG2 VAL A  98      -4.914   4.264  15.532  1.00 29.90     0.012 C 
ATOM     86  CG1 VAL A  98      -5.803   2.159  16.511  1.00 14.79     0.012 C 
ENDBRANCH  83  84
END_RES VAL A  98
BEGIN_RES ASN A 112
REMARK  2 active torsions:
REMARK  status: ('A' for Active; 'I' for Inactive)
REMARK   28  A    between atoms: CA   and  CB  
REMARK   29  A    between atoms: CB   and  CG  
REMARK       I    between atoms: CG   and  ND2 
ROOT
ATOM     87  CA  ASN A 112     -11.790  -8.793  14.069  1.00 37.70     0.185 C 
ENDROOT
BRANCH  87  88
ATOM     88  CB  ASN A 112     -12.992  -7.945  14.465  1.00 26.24     0.137 C 
BRANCH  88  89
ATOM     89  CG  ASN A 112     -13.812  -8.561  15.576  1.00 21.77     0.217 C 
ATOM     90  ND2 ASN A 112     -14.958  -9.136  15.212  1.00  9.31    -0.370 N 
ATOM     91  H04 ASN A 112     -15.551  -9.564  15.909  1.00  9.31     0.159 HD
ATOM     92  H05 ASN A 112     -15.232  -9.144  14.240  1.00  9.31     0.159 HD
ATOM     93  OD1 ASN A 112     -13.426  -8.519  16.750  1.00 21.61    -0.274 OA
ENDBRANCH  88  89
ENDBRANCH  87  88
END_RES ASN A 112
BEGIN_RES PHE A 114
REMARK  2 active torsions:
REMARK  status: ('A' for Active; 'I' for Inactive)
REMARK   30  A    between atoms: CA   and  CB  
REMARK   31  A    between atoms: CB   and  CG  
ROOT
ATOM     94  CA  PHE A 114      -7.754  -3.619  17.012  1.00 26.06     0.180 C 
ENDROOT
BRANCH  94  95
ATOM     95  CB  PHE A 114      -8.890  -3.080  17.867  1.00 19.95     0.073 C 
BRANCH  95  96
ATOM     96  CG  PHE A 114      -9.215  -1.649  17.586  1.00 17.65    -0.056 A 
ATOM     97  CD1 PHE A 114      -8.206  -0.695  17.488  1.00 13.01     0.007 A 
ATOM     98  CE1 PHE A 114      -8.509   0.640  17.256  1.00  6.74     0.001 A 
ATOM     99  CZ  PHE A 114      -9.835   1.041  17.115  1.00  6.27     0.000 A 
ATOM    100  CE2 PHE A 114     -10.847   0.100  17.210  1.00 17.36     0.001 A 
ATOM    101  CD2 PHE A 114     -10.535  -1.243  17.445  1.00 18.39     0.007 A 
ENDBRANCH  95  96
ENDBRANCH  94  95
END_RES PHE A 114
BEGIN_RES VAL A 116
REMARK  1 active torsions:
REMARK  status: ('A' for Active; 'I' for Inactive)
REMARK   32  A    between atoms: CA   and  CB  
ROOT
ATOM    102  CA  VAL A 116      -2.467   0.283  18.565  1.00 13.48     0.180 C 
ENDROOT
BRANCH 102 103
ATOM    103  CB  VAL A 116      -3.101   1.238  19.599  1.00 20.86     0.009 C 
ATOM    104  CG1 VAL A 116      -3.063   2.672  19.062  1.00 25.01     0.012 C 
ATOM    105  CG2 VAL A 116      -4.509   0.808  19.937  1.00 25.34     0.012 C 
ENDBRANCH 102 103
END_RES VAL A 116
BEGIN_RES ILE A 123
REMARK  2 active torsions:
REMARK  status: ('A' for Active; 'I' for Inactive)
REMARK   33  A    between atoms: CA   and  CB  
REMARK   34  A    between atoms: CB   and  CG1 
ROOT
ATOM    106  CA  ILE A 123       1.557  -1.626  23.222  1.00 15.07     0.180 C 
ENDROOT
BRANCH 106 107
ATOM    107  CB  ILE A 123       1.697  -0.112  23.461  1.00 14.41     0.013 C 
ATOM    108  CG2 ILE A 123       3.095   0.205  23.963  1.00 18.35     0.012 C 
BRANCH 107 109
ATOM    109  CG1 ILE A 123       1.411   0.657  22.173  1.00 15.23     0.002 C 
ATOM    110  CD1 ILE A 123       0.223   1.583  22.272  1.00 14.67     0.005 C 
ENDBRANCH 107 109
ENDBRANCH 106 107
END_RES ILE A 123
BEGIN_RES LEU A 124
REMARK  2 active torsions:
REMARK  status: ('A' for Active; 'I' for Inactive)
REMARK   35  A    between atoms: CA   and  CB  
REMARK   36  A    between atoms: CB   and  CG  
ROOT
ATOM    111  CA  LEU A 124      -2.057  -2.686  23.524  1.00 11.86     0.177 C 
ENDROOT
BRANCH 111 112
ATOM    112  CB  LEU A 124      -2.698  -1.652  24.429  1.00 14.60     0.038 C 
BRANCH 112 113
ATOM    113  CG  LEU A 124      -2.631  -0.253  23.835  1.00 16.19    -0.020 C 
ATOM    114  CD1 LEU A 124      -4.055   0.204  23.465  1.00 22.07     0.009 C 
ATOM    115  CD2 LEU A 124      -1.980   0.682  24.824  1.00  9.12     0.009 C 
ENDBRANCH 112 113
ENDBRANCH 111 112
END_RES LEU A 124
BEGIN_RES PHE A 126
REMARK  2 active torsions:
REMARK  status: ('A' for Active; 'I' for Inactive)
REMARK   37  A    between atoms: CA   and  CB  
REMARK   38  A    between atoms: CB   and  CG  
ROOT
ATOM    116  CA  PHE A 126      -8.784  -4.792  22.233  1.00 23.15     0.180 C 
ENDROOT
BRANCH 116 117
ATOM    117  CB  PHE A 126      -9.823  -4.011  21.461  1.00 20.65     0.073 C 
BRANCH 117 118
ATOM    118  CG  PHE A 126     -10.952  -3.547  22.296  1.00 23.65    -0.056 A 
ATOM    119  CD2 PHE A 126     -10.773  -2.542  23.230  1.00 36.63     0.007 A 
ATOM    120  CE2 PHE A 126     -11.845  -2.103  24.019  1.00 36.27     0.001 A 
ATOM    121  CZ  PHE A 126     -13.098  -2.678  23.867  1.00 18.06     0.000 A 
ATOM    122  CE1 PHE A 126     -13.280  -3.680  22.935  1.00  5.50     0.001 A 
ATOM    123  CD1 PHE A 126     -12.209  -4.109  22.151  1.00 15.29     0.007 A 
ENDBRANCH 117 118
ENDBRANCH 116 117
END_RES PHE A 126
BEGIN_RES TRP A 131
REMARK  2 active torsions:
REMARK  status: ('A' for Active; 'I' for Inactive)
REMARK   39  A    between atoms: CA   and  CB  
REMARK   40  A    between atoms: CB   and  CG  
ROOT
ATOM    124  CA  TRP A 131      -8.096  -3.335  26.542  1.00 14.52     0.181 C 
ENDROOT
BRANCH 124 125
ATOM    125  CB  TRP A 131      -7.651  -1.877  26.607  1.00 13.06     0.075 C 
BRANCH 125 126
ATOM    126  CG  TRP A 131      -8.055  -1.050  25.407  1.00 16.97    -0.028 A 
ATOM    127  CD2 TRP A 131      -9.135  -0.115  25.341  1.00 11.34    -0.002 A 
ATOM    128  CE2 TRP A 131      -9.145   0.429  24.042  1.00  5.87     0.042 A 
ATOM    129  CE3 TRP A 131     -10.098   0.315  26.262  1.00  3.80     0.014 A 
ATOM    130  CZ2 TRP A 131     -10.080   1.385  23.639  1.00  1.35     0.030 A 
ATOM    131  NE1 TRP A 131      -8.120  -0.149  23.346  1.00 13.90    -0.365 N 
ATOM    132  CH2 TRP A 131     -11.012   1.789  24.563  1.00  1.00     0.002 A 
ATOM    133  CZ3 TRP A 131     -11.028   1.260  25.867  1.00  1.00     0.001 A 
ATOM    134  CD1 TRP A 131      -7.468  -1.036  24.171  1.00 17.22     0.096 A 
ATOM    135  H07 TRP A 131      -7.880   0.044  22.384  1.00 13.90     0.165 HD
ENDBRANCH 125 126
ENDBRANCH 124 125
END_RES TRP A 131
BEGIN_RES LEU A 148
REMARK  2 active torsions:
REMARK  status: ('A' for Active; 'I' for Inactive)
REMARK   41  A    between atoms: CA   and  CB  
REMARK   42  A    between atoms: CB   and  CG  
ROOT
ATOM    136  CA  LEU A 148      -9.018   3.259  29.295  1.00 16.99     0.177 C 
ENDROOT
BRANCH 136 137
ATOM    137  CB  LEU A 148      -8.166   2.574  28.236  1.00  6.39     0.038 C 
BRANCH 137 138
ATOM    138  CG  LEU A 148      -7.539   3.364  27.105  1.00  1.00    -0.020 C 
ATOM    139  CD2 LEU A 148      -8.602   4.038  26.289  1.00  1.00     0.009 C 
ATOM    140  CD1 LEU A 148      -6.732   2.407  26.247  1.00  2.71     0.009 C 
ENDBRANCH 137 138
ENDBRANCH 136 137
END_RES LEU A 148
BEGIN_RES THR A 154
REMARK  2 active torsions:
REMARK  status: ('A' for Active; 'I' for Inactive)
REMARK   43  A    between atoms: CA   and  CB  
REMARK   44  A    between atoms: CB   and  OG1 
ROOT
ATOM    141  CA  THR A 154     -15.990   3.959  24.426  1.00 20.45     0.205 C 
ENDROOT
BRANCH 141 142
ATOM    142  CB  THR A 154     -14.777   4.829  24.694  1.00 16.79     0.146 C 
ATOM    143  CG2 THR A 154     -13.680   4.521  23.693  1.00 20.24     0.042 C 
BRANCH 142 144
ATOM    144  OG1 THR A 154     -15.154   6.205  24.559  1.00 18.84    -0.393 OA
ATOM    145  H06 THR A 154     -14.528   6.654  23.986  1.00 18.84     0.210 HD
ENDBRANCH 142 144
ENDBRANCH 141 142
END_RES THR A 154
BEGIN_RES VAL A 158
REMARK  1 active torsions:
REMARK  status: ('A' for Active; 'I' for Inactive)
REMARK   45  A    between atoms: CA   and  CB  
ROOT
ATOM    146  CA  VAL A 158     -15.487  -0.189  19.892  1.00 15.49     0.180 C 
ENDROOT
BRANCH 146 147
ATOM    147  CB  VAL A 158     -14.291  -0.273  20.822  1.00  6.52     0.009 C 
ATOM    148  CG1 VAL A 158     -13.241  -1.208  20.267  1.00  1.00     0.012 C 
ATOM    149  CG2 VAL A 158     -13.730   1.103  21.007  1.00  5.99     0.012 C 
ENDBRANCH 146 147
END_RES VAL A 158
BEGIN_RES LEU A 161
REMARK  2 active torsions:
REMARK  status: ('A' for Active; 'I' for Inactive)
REMARK   46  A    between atoms: CA   and  CB  
REMARK   47  A    between atoms: CB   and  CG  
ROOT
ATOM    150  CA  LEU A 161     -18.031  -1.858  15.935  1.00 13.31     0.177 C 
ENDROOT
BRANCH 150 151
ATOM    151  CB  LEU A 161     -17.046  -0.706  16.001  1.00 14.13     0.038 C 
BRANCH 151 152
ATOM    152  CG  LEU A 161     -17.430   0.555  15.236  1.00 19.39    -0.020 C 
ATOM    153  CD2 LEU A 161     -18.832   0.980  15.601  1.00 27.75     0.009 C 
ATOM    154  CD1 LEU A 161     -17.344   0.274  13.761  1.00 18.59     0.009 C 
ENDBRANCH 151 152
ENDBRANCH 150 151
END_RES LEU A 161
BEGIN_RES GLN A 168
REMARK  3 active torsions:
REMARK  status: ('A' for Active; 'I' for Inactive)
REMARK   48  A    between atoms: CA   and  CB  
REMARK   49  A    between atoms: CB   and  CG  
REMARK   50  A    between atoms: CG   and  CD  
REMARK       I    between atoms: CD   and  NE2 
ROOT
ATOM    155  CA  GLN A 168     -22.035  -6.020   8.155  1.00 30.94     0.177 C 
ENDROOT
BRANCH 155 156
ATOM    156  CB  GLN A 168     -23.054  -5.218   8.946  1.00 41.76     0.044 C 
BRANCH 156 157
ATOM    157  CG  GLN A 168     -24.470  -5.710   8.818  1.00 61.20     0.105 C 
BRANCH 157 158
ATOM    158  CD  GLN A 168     -25.097  -5.293   7.502  1.00 75.49     0.215 C 
ATOM    159  NE2 GLN A 168     -25.280  -3.984   7.324  1.00 85.00    -0.370 N 
ATOM    160  H06 GLN A 168     -25.695  -3.644   6.468  1.00 85.00     0.159 HD
ATOM    161  H07 GLN A 168     -25.003  -3.332   8.045  1.00 85.00     0.159 HD
ATOM    162  OE1 GLN A 168     -25.420  -6.136   6.653  1.00 73.64    -0.274 OA
ENDBRANCH 157 158
ENDBRANCH 156 157
ENDBRANCH 155 156
END_RES GLN A 168
ENDMDL
MODEL 7
REMARK VINA RESULT:      -7.2      1.772      5.647
REMARK  Name = human_CD1d_CTAB_pred.rank_0
REMARK  15 active torsions:
REMARK  status: ('A' for Active; 'I' for Inactive)
REMARK    1  A    between atoms: N_2  and  C_17
REMARK    2  A    between atoms: C_3  and  C_4
REMARK    3  A    between atoms: C_4  and  C_5
REMARK    4  A    between atoms: C_5  and  C_6
REMARK    5  A    between atoms: C_6  and  C_7
REMARK    6  A    between atoms: C_7  and  C_8
REMARK    7  A    between atoms: C_8  and  C_9
REMARK    8  A    between atoms: C_9  and  C_10
REMARK    9  A    between atoms: C_10  and  C_11
REMARK   10  A    between atoms: C_11  and  C_12
REMARK   11  A    between atoms: C_12  and  C_13
REMARK   12  A    between atoms: C_13  and  C_14
REMARK   13  A    between atoms: C_14  and  C_15
REMARK   14  A    between atoms: C_15  and  C_16
REMARK   15  A    between atoms: C_16  and  C_17
REMARK                            x       y       z     vdW  Elec       q    Type
REMARK                         _______ _______ _______ _____ _____    ______ ____
ROOT
ATOM      1  C   UNL     1     -18.399   2.632   7.461  0.00  0.00    +0.000 C 
ENDROOT
BRANCH   1   2
ATOM      2  C   UNL     1     -17.030   3.240   7.534  0.00  0.00    +0.000 C 
BRANCH   2   3
ATOM      3  C   UNL     1     -17.099   4.754   7.452  0.00  0.00    +0.000 C 
BRANCH   3   4
ATOM      4  C   UNL     1     -16.354   5.387   8.609  0.00  0.00    +0.000 C 
BRANCH   4   5
ATOM      5  C   UNL     1     -15.666   4.284   9.443  0.00  0.00    +0.000 C 
BRANCH   5   6
ATOM      6  C   UNL     1     -15.975   4.448  10.922  0.00  0.00    +0.000 C 
BRANCH   6   7
ATOM      7  C   UNL     1     -15.929   3.079  11.599  0.00  0.00    +0.000 C 
BRANCH   7   8
ATOM      8  C   UNL     1     -14.982   3.101  12.778  0.00  0.00    +0.000 C 
BRANCH   8  10
ATOM      9  C   UNL     1     -15.225   3.458  15.213  0.00  0.00    +0.000 C 
ATOM     10  C   UNL     1     -15.580   3.987  13.860  0.00  0.00    +0.000 C 
ENDBRANCH   8  10
ENDBRANCH   7   8
ENDBRANCH   6   7
ENDBRANCH   5   6
ENDBRANCH   4   5
ENDBRANCH   3   4
ENDBRANCH   2   3
ENDBRANCH   1   2
BRANCH   1  11
ATOM     11  C   UNL     1     -18.504   1.434   8.381  0.00  0.00    +0.000 C 
BRANCH  11  12
ATOM     12  C   UNL     1     -17.142   1.109   8.954  0.00  0.00    +0.000 C 
BRANCH  12  13
ATOM     13  C   UNL     1     -17.259  -0.068   9.900  0.00  0.00    +0.000 C 
BRANCH  13  14
ATOM     14  C   UNL     1     -16.149  -1.068   9.618  0.00  0.00    +0.000 C 
BRANCH  14  15
ATOM     15  C   UNL     1     -14.779  -0.405   9.858  0.00  0.00    +0.000 C 
BRANCH  15  16
ATOM     16  C   UNL     1     -14.489  -0.297  11.348  0.00  0.00    +0.000 C 
BRANCH  16  17
ATOM     17  N   UNL     1     -13.206  -0.940  11.661  0.00  0.00    +0.000 N 
ATOM     18  C   UNL     1     -12.349   0.073  12.247  0.00  0.00    +0.000 C 
ATOM     19  C   UNL     1     -12.597  -1.406  10.438  0.00  0.00    +0.000 C 
ATOM     20  C   UNL     1     -13.363  -2.038  12.615  0.00  0.00    +0.000 C 
ENDBRANCH  16  17
ENDBRANCH  15  16
ENDBRANCH  14  15
ENDBRANCH  13  14
ENDBRANCH  12  13
ENDBRANCH  11  12
ENDBRANCH   1  11
TORSDOF 15
BEGIN_RES LEU A  10
REMARK  2 active torsions:
REMARK  status: ('A' for Active; 'I' for Inactive)
REMARK    1  A    between atoms: CA   and  CB  
REMARK    2  A    between atoms: CB   and  CG  
ROOT
ATOM      1  CA  LEU A  10     -10.775  -4.871   5.898  1.00 25.14     0.177 C 
ENDROOT
BRANCH   1   2
ATOM      2  CB  LEU A  10     -12.191  -4.387   6.226  1.00 17.87     0.038 C 
BRANCH   2   3
ATOM      3  CG  LEU A  10     -12.404  -2.883   6.042  1.00 24.95    -0.020 C 
ATOM      4  CD2 LEU A  10     -13.659  -2.481   6.740  1.00 26.38     0.009 C 
ATOM      5  CD1 LEU A  10     -12.472  -2.520   4.569  1.00 28.12     0.009 C 
ENDBRANCH   2   3
ENDBRANCH   1   2
END_RES LEU A  10
BEGIN_RES CYS A  12
REMARK  2 active torsions:
REMARK  status: ('A' for Active; 'I' for Inactive)
REMARK    3  A    between atoms: CA   and  CB  
REMARK    4  A    between atoms: CB   and  SG  
ROOT
ATOM      6  CA  CYS A  12      -8.555   0.470   8.750  1.00 23.16     0.185 C 
ENDROOT
BRANCH   6   7
ATOM      7  CB  CYS A  12      -9.828   0.763   9.555  1.00 20.43     0.105 C 
BRANCH   7   8
ATOM      8  SG  CYS A  12     -10.986   1.955   8.815  1.00 24.64    -0.180 SA
ATOM      9  H04 CYS A  12     -10.297   2.904   8.167  1.00 24.64     0.101 HD
ENDBRANCH   7   8
ENDBRANCH   6   7
END_RES CYS A  12
BEGIN_RES GLN A  14
REMARK  3 active torsions:
REMARK  status: ('A' for Active; 'I' for Inactive)
REMARK    5  A    between atoms: CA   and  CB  
REMARK    6  A    between atoms: CB   and  CG  
REMARK    7  A    between atoms: CG   and  CD  
REMARK       I    between atoms: CD   and  NE2 
ROOT
ATOM     10  CA  GLN A  14      -4.645   5.402  11.377  1.00 10.43     0.177 C 
ENDROOT
BRANCH  10  11
ATOM     11  CB  GLN A  14      -5.541   5.549  12.608  1.00 14.45     0.044 C 
BRANCH  11  12
ATOM     12  CG  GLN A  14      -6.445   6.760  12.572  1.00 13.74     0.105 C 
BRANCH  12  13
ATOM     13  CD  GLN A  14      -5.859   7.939  13.312  1.00 16.29     0.215 C 
ATOM     14  NE2 GLN A  14      -6.647   8.980  13.474  1.00  8.57    -0.370 N 
ATOM     15  H06 GLN A  14      -6.310   9.797  13.962  1.00  8.57     0.159 HD
ATOM     16  H07 GLN A  14      -7.589   8.962  13.110  1.00  8.57     0.159 HD
ATOM     17  OE1 GLN A  14      -4.713   7.912  13.734  1.00 23.55    -0.274 OA
ENDBRANCH  12  13
ENDBRANCH  11  12
ENDBRANCH  10  11
END_RES GLN A  14
BEGIN_RES SER A  16
REMARK  2 active torsions:
REMARK  status: ('A' for Active; 'I' for Inactive)
REMARK    8  A    between atoms: CA   and  CB  
REMARK    9  A    between atoms: CB   and  OG  
ROOT
ATOM     18  CA  SER A  16      -1.305  10.019  14.282  1.00  2.34     0.200 C 
ENDROOT
BRANCH  18  19
ATOM     19  CB  SER A  16      -2.242   9.935  15.479  1.00  3.12     0.199 C 
BRANCH  19  20
ATOM     20  OG  SER A  16      -2.520   8.582  15.793  1.00  1.00    -0.398 OA
ATOM     21  H04 SER A  16      -1.798   8.218  16.311  1.00  1.00     0.209 HD
ENDBRANCH  19  20
ENDBRANCH  18  19
END_RES SER A  16
BEGIN_RES LEU A  32
REMARK  2 active torsions:
REMARK  status: ('A' for Active; 'I' for Inactive)
REMARK   10  A    between atoms: CA   and  CB  
REMARK   11  A    between atoms: CB   and  CG  
ROOT
ATOM     22  CA  LEU A  32     -10.272  -4.106   1.587  1.00 16.16     0.177 C 
ENDROOT
BRANCH  22  23
ATOM     23  CB  LEU A  32     -11.613  -3.858   0.880  1.00 12.35     0.038 C 
BRANCH  23  24
ATOM     24  CG  LEU A  32     -12.550  -5.079   0.981  1.00  9.77    -0.020 C 
ATOM     25  CD1 LEU A  32     -13.027  -5.259   2.402  1.00  4.35     0.009 C 
ATOM     26  CD2 LEU A  32     -13.734  -4.925   0.063  1.00 10.60     0.009 C 
ENDBRANCH  23  24
ENDBRANCH  22  23
END_RES LEU A  32
BEGIN_RES HIS A  38
REMARK  2 active torsions:
REMARK  status: ('A' for Active; 'I' for Inactive)
REMARK   12  A    between atoms: CA   and  CB  
REMARK   13  A    between atoms: CB   and  CG  
ROOT
ATOM     27  CA  HIS A  38     -10.959   4.941   1.621  1.00 16.94     0.182 C 
ENDROOT
BRANCH  27  28
ATOM     28  CB  HIS A  38     -11.810   4.840   2.881  1.00 15.47     0.095 C 
BRANCH  28  29
ATOM     29  CG  HIS A  38     -12.967   3.902   2.755  1.00 18.62     0.053 A 
ATOM     30  CD2 HIS A  38     -14.104   3.987   2.024  1.00 15.06     0.116 A 
ATOM     31  NE2 HIS A  38     -14.814   2.836   2.251  1.00 18.12    -0.359 N 
ATOM     32  CE1 HIS A  38     -14.141   2.072   3.090  1.00 14.78     0.207 A 
ATOM     33  H06 HIS A  38     -15.710   2.610   1.842  1.00 18.12     0.166 HD
ATOM     34  ND1 HIS A  38     -13.022   2.692   3.411  1.00 16.58    -0.247 NA
ENDBRANCH  28  29
ENDBRANCH  27  28
END_RES HIS A  38
BEGIN_RES TRP A  63
REMARK  2 active torsions:
REMARK  status: ('A' for Active; 'I' for Inactive)
REMARK   14  A    between atoms: CA   and  CB  
REMARK   15  A    between atoms: CB   and  CG  
ROOT
ATOM     35  CA  TRP A  63     -22.437   6.257   6.543  1.00 27.04     0.181 C 
ENDROOT
BRANCH  35  36
ATOM     36  CB  TRP A  63     -22.360   6.642   5.068  1.00 31.37     0.075 C 
BRANCH  36  37
ATOM     37  CG  TRP A  63     -20.959   6.906   4.559  1.00 34.37    -0.028 A 
ATOM     38  CD2 TRP A  63     -19.909   5.946   4.370  1.00 33.79    -0.002 A 
ATOM     39  CE3 TRP A  63     -19.789   4.576   4.613  1.00 32.99     0.014 A 
ATOM     40  CE2 TRP A  63     -18.810   6.635   3.812  1.00 35.84     0.042 A 
ATOM     41  CZ3 TRP A  63     -18.594   3.945   4.299  1.00 32.93     0.001 A 
ATOM     42  CH2 TRP A  63     -17.518   4.658   3.747  1.00 39.24     0.002 A 
ATOM     43  CZ2 TRP A  63     -17.607   6.001   3.495  1.00 37.99     0.030 A 
ATOM     44  NE1 TRP A  63     -19.177   7.945   3.674  1.00 37.98    -0.365 N 
ATOM     45  H06 TRP A  63     -18.596   8.682   3.300  1.00 37.98     0.165 HD
ATOM     46  CD1 TRP A  63     -20.466   8.097   4.126  1.00 38.16     0.096 A 
ENDBRANCH  36  37
ENDBRANCH  35  36
END_RES TRP A  63
BEGIN_RES LEU A  66
REMARK  2 active torsions:
REMARK  status: ('A' for Active; 'I' for Inactive)
REMARK   16  A    between atoms: CA   and  CB  
REMARK   17  A    between atoms: CB   and  CG  
ROOT
ATOM     47  CA  LEU A  66     -20.004   6.489  11.120  1.00 10.90     0.177 C 
ENDROOT
BRANCH  47  48
ATOM     48  CB  LEU A  66     -19.626   5.453  10.069  1.00 13.57     0.038 C 
BRANCH  48  49
ATOM     49  CG  LEU A  66     -19.609   3.988  10.505  1.00  8.73    -0.020 C 
ATOM     50  CD1 LEU A  66     -19.406   3.880  11.994  1.00 14.23     0.009 C 
ATOM     51  CD2 LEU A  66     -20.921   3.358  10.114  1.00  1.92     0.009 C 
ENDBRANCH  48  49
ENDBRANCH  47  48
END_RES LEU A  66
BEGIN_RES PHE A  70
REMARK  2 active torsions:
REMARK  status: ('A' for Active; 'I' for Inactive)
REMARK   18  A    between atoms: CA   and  CB  
REMARK   19  A    between atoms: CB   and  CG  
ROOT
ATOM     52  CA  PHE A  70     -14.974   9.434  13.165  1.00  8.78     0.180 C 
ENDROOT
BRANCH  52  53
ATOM     53  CB  PHE A  70     -14.707   9.132  11.681  1.00  6.33     0.073 C 
BRANCH  53  54
ATOM     54  CG  PHE A  70     -13.899   7.882  11.461  1.00  3.42    -0.056 A 
ATOM     55  CD1 PHE A  70     -13.605   7.436  10.181  1.00 13.88     0.007 A 
ATOM     56  CE1 PHE A  70     -12.889   6.243   9.982  1.00 12.71     0.001 A 
ATOM     57  CZ  PHE A  70     -12.463   5.489  11.076  1.00  4.21     0.000 A 
ATOM     58  CE2 PHE A  70     -12.748   5.925  12.357  1.00  2.83     0.001 A 
ATOM     59  CD2 PHE A  70     -13.464   7.119  12.545  1.00  1.00     0.007 A 
ENDBRANCH  53  54
ENDBRANCH  52  53
END_RES PHE A  70
BEGIN_RES TYR A  73
REMARK  3 active torsions:
REMARK  status: ('A' for Active; 'I' for Inactive)
REMARK   20  A    between atoms: CA   and  CB  
REMARK   21  A    between atoms: CB   and  CG  
REMARK   22  A    between atoms: CZ   and  OH  
ROOT
ATOM     60  CA  TYR A  73     -13.212  10.166  17.260  1.00 12.17     0.180 C 
ENDROOT
BRANCH  60  61
ATOM     61  CB  TYR A  73     -13.301   8.846  16.517  1.00 12.84     0.073 C 
BRANCH  61  62
ATOM     62  CG  TYR A  73     -13.313   7.666  17.424  1.00 15.89    -0.056 A 
ATOM     63  CD1 TYR A  73     -13.422   6.386  16.925  1.00 16.00     0.010 A 
ATOM     64  CE1 TYR A  73     -13.464   5.281  17.774  1.00 13.55     0.037 A 
ATOM     65  CZ  TYR A  73     -13.396   5.474  19.140  1.00 18.13     0.065 A 
ATOM     66  CE2 TYR A  73     -13.285   6.741  19.664  1.00 15.89     0.037 A 
ATOM     67  CD2 TYR A  73     -13.244   7.831  18.803  1.00 21.86     0.010 A 
BRANCH  65  68
ATOM     68  OH  TYR A  73     -13.430   4.400  19.994  1.00 12.12    -0.361 OA
ATOM     69  H08 TYR A  73     -14.283   3.965  19.930  1.00 12.12     0.217 HD
ENDBRANCH  65  68
ENDBRANCH  61  62
ENDBRANCH  60  61
END_RES TYR A  73
BEGIN_RES PHE A  77
REMARK  2 active torsions:
REMARK  status: ('A' for Active; 'I' for Inactive)
REMARK   23  A    between atoms: CA   and  CB  
REMARK   24  A    between atoms: CB   and  CG  
ROOT
ATOM     70  CA  PHE A  77      -8.400  10.581  20.110  1.00 17.17     0.180 C 
ENDROOT
BRANCH  70  71
ATOM     71  CB  PHE A  77      -8.228   9.750  18.851  1.00 10.44     0.073 C 
BRANCH  71  72
ATOM     72  CG  PHE A  77      -8.767   8.359  18.969  1.00  6.07    -0.056 A 
ATOM     73  CD2 PHE A  77      -8.726   7.692  20.172  1.00  9.61     0.007 A 
ATOM     74  CE2 PHE A  77      -9.226   6.401  20.291  1.00  1.00     0.001 A 
ATOM     75  CZ  PHE A  77      -9.776   5.769  19.189  1.00  1.92     0.000 A 
ATOM     76  CE1 PHE A  77      -9.826   6.422  17.979  1.00  9.25     0.001 A 
ATOM     77  CD1 PHE A  77      -9.319   7.717  17.873  1.00  9.63     0.007 A 
ENDBRANCH  71  72
ENDBRANCH  70  71
END_RES PHE A  77
BEGIN_RES LEU A  96
REMARK  2 active torsions:
REMARK  status: ('A' for Active; 'I' for Inactive)
REMARK   25  A    between atoms: CA   and  CB  
REMARK   26  A    between atoms: CB   and  CG  
ROOT
ATOM     78  CA  LEU A  96       0.717   6.481  17.359  1.00 16.08     0.177 C 
ENDROOT
BRANCH  78  79
ATOM     79  CB  LEU A  96      -0.370   7.101  18.230  1.00 18.83     0.038 C 
BRANCH  79  80
ATOM     80  CG  LEU A  96      -0.160   6.919  19.733  1.00 19.03    -0.020 C 
ATOM     81  CD1 LEU A  96       0.540   8.142  20.279  1.00 28.17     0.009 C 
ATOM     82  CD2 LEU A  96      -1.489   6.774  20.438  1.00 22.01     0.009 C 
ENDBRANCH  79  80
ENDBRANCH  78  79
END_RES LEU A  96
BEGIN_RES VAL A  98
REMARK  1 active torsions:
REMARK  status: ('A' for Active; 'I' for Inactive)
REMARK   27  A    between atoms: CA   and  CB  
ROOT
ATOM     83  CA  VAL A  98      -3.928   2.082  14.897  1.00 19.83     0.180 C 
ENDROOT
BRANCH  83  84
ATOM     84  CB  VAL A  98      -5.203   2.807  15.281  1.00 17.87     0.009 C 
ATOM     85  CG2 VAL A  98      -4.931   4.280  15.443  1.00 29.90     0.012 C 
ATOM     86  CG1 VAL A  98      -5.755   2.218  16.562  1.00 14.79     0.012 C 
ENDBRANCH  83  84
END_RES VAL A  98
BEGIN_RES ASN A 112
REMARK  2 active torsions:
REMARK  status: ('A' for Active; 'I' for Inactive)
REMARK   28  A    between atoms: CA   and  CB  
REMARK   29  A    between atoms: CB   and  CG  
REMARK       I    between atoms: CG   and  ND2 
ROOT
ATOM     87  CA  ASN A 112     -11.790  -8.793  14.069  1.00 37.70     0.185 C 
ENDROOT
BRANCH  87  88
ATOM     88  CB  ASN A 112     -12.992  -7.945  14.465  1.00 26.24     0.137 C 
BRANCH  88  89
ATOM     89  CG  ASN A 112     -13.803  -8.554  15.587  1.00 21.77     0.217 C 
ATOM     90  ND2 ASN A 112     -14.944  -9.144  15.234  1.00  9.31    -0.370 N 
ATOM     91  H04 ASN A 112     -15.532  -9.568  15.938  1.00  9.31     0.159 HD
ATOM     92  H05 ASN A 112     -15.222  -9.168  14.263  1.00  9.31     0.159 HD
ATOM     93  OD1 ASN A 112     -13.414  -8.491  16.759  1.00 21.61    -0.274 OA
ENDBRANCH  88  89
ENDBRANCH  87  88
END_RES ASN A 112
BEGIN_RES PHE A 114
REMARK  2 active torsions:
REMARK  status: ('A' for Active; 'I' for Inactive)
REMARK   30  A    between atoms: CA   and  CB  
REMARK   31  A    between atoms: CB   and  CG  
ROOT
ATOM     94  CA  PHE A 114      -7.754  -3.619  17.012  1.00 26.06     0.180 C 
ENDROOT
BRANCH  94  95
ATOM     95  CB  PHE A 114      -8.890  -3.080  17.867  1.00 19.95     0.073 C 
BRANCH  95  96
ATOM     96  CG  PHE A 114      -9.196  -1.641  17.606  1.00 17.65    -0.056 A 
ATOM     97  CD1 PHE A 114     -10.512  -1.199  17.505  1.00 13.01     0.007 A 
ATOM     98  CE1 PHE A 114     -10.797   0.133  17.234  1.00  6.74     0.001 A 
ATOM     99  CZ  PHE A 114      -9.761   1.047  17.063  1.00  6.27     0.000 A 
ATOM    100  CE2 PHE A 114      -8.447   0.619  17.162  1.00 17.36     0.001 A 
ATOM    101  CD2 PHE A 114      -8.167  -0.725  17.434  1.00 18.39     0.007 A 
ENDBRANCH  95  96
ENDBRANCH  94  95
END_RES PHE A 114
BEGIN_RES VAL A 116
REMARK  1 active torsions:
REMARK  status: ('A' for Active; 'I' for Inactive)
REMARK   32  A    between atoms: CA   and  CB  
ROOT
ATOM    102  CA  VAL A 116      -2.467   0.283  18.565  1.00 13.48     0.180 C 
ENDROOT
BRANCH 102 103
ATOM    103  CB  VAL A 116      -3.101   1.238  19.599  1.00 20.86     0.009 C 
ATOM    104  CG1 VAL A 116      -3.017   2.678  19.085  1.00 25.01     0.012 C 
ATOM    105  CG2 VAL A 116      -4.526   0.836  19.900  1.00 25.34     0.012 C 
ENDBRANCH 102 103
END_RES VAL A 116
BEGIN_RES ILE A 123
REMARK  2 active torsions:
REMARK  status: ('A' for Active; 'I' for Inactive)
REMARK   33  A    between atoms: CA   and  CB  
REMARK   34  A    between atoms: CB   and  CG1 
ROOT
ATOM    106  CA  ILE A 123       1.557  -1.626  23.222  1.00 15.07     0.180 C 
ENDROOT
BRANCH 106 107
ATOM    107  CB  ILE A 123       1.697  -0.112  23.461  1.00 14.41     0.013 C 
ATOM    108  CG2 ILE A 123       3.084   0.201  23.995  1.00 18.35     0.012 C 
BRANCH 107 109
ATOM    109  CG1 ILE A 123       1.444   0.655  22.165  1.00 15.23     0.002 C 
ATOM    110  CD1 ILE A 123       0.195   1.502  22.197  1.00 14.67     0.005 C 
ENDBRANCH 107 109
ENDBRANCH 106 107
END_RES ILE A 123
BEGIN_RES LEU A 124
REMARK  2 active torsions:
REMARK  status: ('A' for Active; 'I' for Inactive)
REMARK   35  A    between atoms: CA   and  CB  
REMARK   36  A    between atoms: CB   and  CG  
ROOT
ATOM    111  CA  LEU A 124      -2.057  -2.686  23.524  1.00 11.86     0.177 C 
ENDROOT
BRANCH 111 112
ATOM    112  CB  LEU A 124      -2.698  -1.652  24.429  1.00 14.60     0.038 C 
BRANCH 112 113
ATOM    113  CG  LEU A 124      -2.623  -0.252  23.839  1.00 16.19    -0.020 C 
ATOM    114  CD1 LEU A 124      -4.042   0.205  23.450  1.00 22.07     0.009 C 
ATOM    115  CD2 LEU A 124      -1.987   0.681  24.839  1.00  9.12     0.009 C 
ENDBRANCH 112 113
ENDBRANCH 111 112
END_RES LEU A 124
BEGIN_RES PHE A 126
REMARK  2 active torsions:
REMARK  status: ('A' for Active; 'I' for Inactive)
REMARK   37  A    between atoms: CA   and  CB  
REMARK   38  A    between atoms: CB   and  CG  
ROOT
ATOM    116  CA  PHE A 126      -8.784  -4.792  22.233  1.00 23.15     0.180 C 
ENDROOT
BRANCH 116 117
ATOM    117  CB  PHE A 126      -9.823  -4.011  21.461  1.00 20.65     0.073 C 
BRANCH 117 118
ATOM    118  CG  PHE A 126     -10.959  -3.559  22.293  1.00 23.65    -0.056 A 
ATOM    119  CD2 PHE A 126     -12.208  -4.138  22.156  1.00 36.63     0.007 A 
ATOM    120  CE2 PHE A 126     -13.284  -3.710  22.946  1.00 36.27     0.001 A 
ATOM    121  CZ  PHE A 126     -13.099  -2.696  23.874  1.00 18.06     0.000 A 
ATOM    122  CE1 PHE A 126     -11.854  -2.118  24.015  1.00  5.50     0.001 A 
ATOM    123  CD1 PHE A 126     -10.788  -2.552  23.227  1.00 15.29     0.007 A 
ENDBRANCH 117 118
ENDBRANCH 116 117
END_RES PHE A 126
BEGIN_RES TRP A 131
REMARK  2 active torsions:
REMARK  status: ('A' for Active; 'I' for Inactive)
REMARK   39  A    between atoms: CA   and  CB  
REMARK   40  A    between atoms: CB   and  CG  
ROOT
ATOM    124  CA  TRP A 131      -8.096  -3.335  26.542  1.00 14.52     0.181 C 
ENDROOT
BRANCH 124 125
ATOM    125  CB  TRP A 131      -7.651  -1.877  26.607  1.00 13.06     0.075 C 
BRANCH 125 126
ATOM    126  CG  TRP A 131      -8.048  -1.052  25.403  1.00 16.97    -0.028 A 
ATOM    127  CD2 TRP A 131      -9.134  -0.125  25.326  1.00 11.34    -0.002 A 
ATOM    128  CE2 TRP A 131      -9.134   0.420  24.027  1.00  5.87     0.042 A 
ATOM    129  CE3 TRP A 131     -10.111   0.296  26.236  1.00  3.80     0.014 A 
ATOM    130  CZ2 TRP A 131     -10.071   1.369  23.615  1.00  1.35     0.030 A 
ATOM    131  NE1 TRP A 131      -8.096  -0.150  23.342  1.00 13.90    -0.365 N 
ATOM    132  CH2 TRP A 131     -11.017   1.765  24.528  1.00  1.00     0.002 A 
ATOM    133  CZ3 TRP A 131     -11.043   1.235  25.832  1.00  1.00     0.001 A 
ATOM    134  CD1 TRP A 131      -7.447  -1.033  24.174  1.00 17.22     0.096 A 
ATOM    135  H07 TRP A 131      -7.847   0.046  22.383  1.00 13.90     0.165 HD
ENDBRANCH 125 126
ENDBRANCH 124 125
END_RES TRP A 131
BEGIN_RES LEU A 148
REMARK  2 active torsions:
REMARK  status: ('A' for Active; 'I' for Inactive)
REMARK   41  A    between atoms: CA   and  CB  
REMARK   42  A    between atoms: CB   and  CG  
ROOT
ATOM    136  CA  LEU A 148      -9.018   3.259  29.295  1.00 16.99     0.177 C 
ENDROOT
BRANCH 136 137
ATOM    137  CB  LEU A 148      -8.166   2.574  28.236  1.00  6.39     0.038 C 
BRANCH 137 138
ATOM    138  CG  LEU A 148      -7.990   3.183  26.860  1.00  1.00    -0.020 C 
ATOM    139  CD2 LEU A 148      -6.589   3.695  26.693  1.00  1.00     0.009 C 
ATOM    140  CD1 LEU A 148      -8.993   4.311  26.707  1.00  2.71     0.009 C 
ENDBRANCH 137 138
ENDBRANCH 136 137
END_RES LEU A 148
BEGIN_RES THR A 154
REMARK  2 active torsions:
REMARK  status: ('A' for Active; 'I' for Inactive)
REMARK   43  A    between atoms: CA   and  CB  
REMARK   44  A    between atoms: CB   and  OG1 
ROOT
ATOM    141  CA  THR A 154     -15.990   3.959  24.426  1.00 20.45     0.205 C 
ENDROOT
BRANCH 141 142
ATOM    142  CB  THR A 154     -14.777   4.829  24.694  1.00 16.79     0.146 C 
ATOM    143  CG2 THR A 154     -13.680   4.520  23.694  1.00 20.24     0.042 C 
BRANCH 142 144
ATOM    144  OG1 THR A 154     -15.153   6.205  24.558  1.00 18.84    -0.393 OA
ATOM    145  H06 THR A 154     -14.367   6.742  24.436  1.00 18.84     0.210 HD
ENDBRANCH 142 144
ENDBRANCH 141 142
END_RES THR A 154
BEGIN_RES VAL A 158
REMARK  1 active torsions:
REMARK  status: ('A' for Active; 'I' for Inactive)
REMARK   45  A    between atoms: CA   and  CB  
ROOT
ATOM    146  CA  VAL A 158     -15.487  -0.189  19.892  1.00 15.49     0.180 C 
ENDROOT
BRANCH 146 147
ATOM    147  CB  VAL A 158     -14.291  -0.273  20.822  1.00  6.52     0.009 C 
ATOM    148  CG1 VAL A 158     -13.252  -1.226  20.279  1.00  1.00     0.012 C 
ATOM    149  CG2 VAL A 158     -13.715   1.099  20.988  1.00  5.99     0.012 C 
ENDBRANCH 146 147
END_RES VAL A 158
BEGIN_RES LEU A 161
REMARK  2 active torsions:
REMARK  status: ('A' for Active; 'I' for Inactive)
REMARK   46  A    between atoms: CA   and  CB  
REMARK   47  A    between atoms: CB   and  CG  
ROOT
ATOM    150  CA  LEU A 161     -18.031  -1.858  15.935  1.00 13.31     0.177 C 
ENDROOT
BRANCH 150 151
ATOM    151  CB  LEU A 161     -17.046  -0.706  16.001  1.00 14.13     0.038 C 
BRANCH 151 152
ATOM    152  CG  LEU A 161     -17.428   0.553  15.234  1.00 19.39    -0.020 C 
ATOM    153  CD2 LEU A 161     -18.844   0.959  15.567  1.00 27.75     0.009 C 
ATOM    154  CD1 LEU A 161     -17.303   0.282  13.759  1.00 18.59     0.009 C 
ENDBRANCH 151 152
ENDBRANCH 150 151
END_RES LEU A 161
BEGIN_RES GLN A 168
REMARK  3 active torsions:
REMARK  status: ('A' for Active; 'I' for Inactive)
REMARK   48  A    between atoms: CA   and  CB  
REMARK   49  A    between atoms: CB   and  CG  
REMARK   50  A    between atoms: CG   and  CD  
REMARK       I    between atoms: CD   and  NE2 
ROOT
ATOM    155  CA  GLN A 168     -22.035  -6.020   8.155  1.00 30.94     0.177 C 
ENDROOT
BRANCH 155 156
ATOM    156  CB  GLN A 168     -23.054  -5.218   8.946  1.00 41.76     0.044 C 
BRANCH 156 157
ATOM    157  CG  GLN A 168     -24.407  -5.866   9.057  1.00 61.20     0.105 C 
BRANCH 157 158
ATOM    158  CD  GLN A 168     -24.775  -6.163  10.498  1.00 75.49     0.215 C 
ATOM    159  NE2 GLN A 168     -25.898  -5.601  10.948  1.00 85.00    -0.370 N 
ATOM    160  H06 GLN A 168     -26.195  -5.759  11.901  1.00 85.00     0.159 HD
ATOM    161  H07 GLN A 168     -26.451  -5.017  10.337  1.00 85.00     0.159 HD
ATOM    162  OE1 GLN A 168     -24.057  -6.885  11.205  1.00 73.64    -0.274 OA
ENDBRANCH 157 158
ENDBRANCH 156 157
ENDBRANCH 155 156
END_RES GLN A 168
ENDMDL
MODEL 8
REMARK VINA RESULT:      -7.2      1.721      4.497
REMARK  Name = human_CD1d_CTAB_pred.rank_0
REMARK  15 active torsions:
REMARK  status: ('A' for Active; 'I' for Inactive)
REMARK    1  A    between atoms: N_2  and  C_17
REMARK    2  A    between atoms: C_3  and  C_4
REMARK    3  A    between atoms: C_4  and  C_5
REMARK    4  A    between atoms: C_5  and  C_6
REMARK    5  A    between atoms: C_6  and  C_7
REMARK    6  A    between atoms: C_7  and  C_8
REMARK    7  A    between atoms: C_8  and  C_9
REMARK    8  A    between atoms: C_9  and  C_10
REMARK    9  A    between atoms: C_10  and  C_11
REMARK   10  A    between atoms: C_11  and  C_12
REMARK   11  A    between atoms: C_12  and  C_13
REMARK   12  A    between atoms: C_13  and  C_14
REMARK   13  A    between atoms: C_14  and  C_15
REMARK   14  A    between atoms: C_15  and  C_16
REMARK   15  A    between atoms: C_16  and  C_17
REMARK                            x       y       z     vdW  Elec       q    Type
REMARK                         _______ _______ _______ _____ _____    ______ ____
ROOT
ATOM      1  C   UNL     1     -11.695   4.276   7.141  0.00  0.00    +0.000 C 
ENDROOT
BRANCH   1   2
ATOM      2  C   UNL     1     -13.057   4.587   6.595  0.00  0.00    +0.000 C 
BRANCH   2   3
ATOM      3  C   UNL     1     -13.947   3.359   6.610  0.00  0.00    +0.000 C 
BRANCH   3   4
ATOM      4  C   UNL     1     -15.175   3.597   7.463  0.00  0.00    +0.000 C 
BRANCH   4   5
ATOM      5  C   UNL     1     -15.484   5.109   7.511  0.00  0.00    +0.000 C 
BRANCH   5   6
ATOM      6  C   UNL     1     -16.341   5.452   8.718  0.00  0.00    +0.000 C 
BRANCH   6   7
ATOM      7  C   UNL     1     -16.046   4.460   9.842  0.00  0.00    +0.000 C 
BRANCH   7   8
ATOM      8  C   UNL     1     -16.354   5.076  11.187  0.00  0.00    +0.000 C 
BRANCH   8  10
ATOM      9  C   UNL     1     -16.103   2.660  11.651  0.00  0.00    +0.000 C 
ATOM     10  C   UNL     1     -16.129   4.024  12.263  0.00  0.00    +0.000 C 
ENDBRANCH   8  10
ENDBRANCH   7   8
ENDBRANCH   6   7
ENDBRANCH   5   6
ENDBRANCH   4   5
ENDBRANCH   3   4
ENDBRANCH   2   3
ENDBRANCH   1   2
BRANCH   1  11
ATOM     11  C   UNL     1     -10.682   5.300   6.674  0.00  0.00    +0.000 C 
BRANCH  11  12
ATOM     12  C   UNL     1      -9.904   5.827   7.860  0.00  0.00    +0.000 C 
BRANCH  12  13
ATOM     13  C   UNL     1      -9.578   4.685   8.798  0.00  0.00    +0.000 C 
BRANCH  13  14
ATOM     14  C   UNL     1      -9.112   5.236  10.137  0.00  0.00    +0.000 C 
BRANCH  14  15
ATOM     15  C   UNL     1      -8.711   4.073  11.066  0.00  0.00    +0.000 C 
BRANCH  15  16
ATOM     16  C   UNL     1      -9.932   3.517  11.786  0.00  0.00    +0.000 C 
BRANCH  16  17
ATOM     17  N   UNL     1      -9.657   3.393  13.223  0.00  0.00    +0.000 N 
ATOM     18  C   UNL     1      -9.497   4.736  13.748  0.00  0.00    +0.000 C 
ATOM     19  C   UNL     1      -8.419   2.675  13.410  0.00  0.00    +0.000 C 
ATOM     20  C   UNL     1     -10.753   2.735  13.934  0.00  0.00    +0.000 C 
ENDBRANCH  16  17
ENDBRANCH  15  16
ENDBRANCH  14  15
ENDBRANCH  13  14
ENDBRANCH  12  13
ENDBRANCH  11  12
ENDBRANCH   1  11
TORSDOF 15
BEGIN_RES LEU A  10
REMARK  2 active torsions:
REMARK  status: ('A' for Active; 'I' for Inactive)
REMARK    1  A    between atoms: CA   and  CB  
REMARK    2  A    between atoms: CB   and  CG  
ROOT
ATOM      1  CA  LEU A  10     -10.775  -4.871   5.898  1.00 25.14     0.177 C 
ENDROOT
BRANCH   1   2
ATOM      2  CB  LEU A  10     -12.191  -4.387   6.226  1.00 17.87     0.038 C 
BRANCH   2   3
ATOM      3  CG  LEU A  10     -12.343  -2.865   6.278  1.00 24.95    -0.020 C 
ATOM      4  CD2 LEU A  10     -13.022  -2.488   7.551  1.00 26.38     0.009 C 
ATOM      5  CD1 LEU A  10     -13.129  -2.357   5.082  1.00 28.12     0.009 C 
ENDBRANCH   2   3
ENDBRANCH   1   2
END_RES LEU A  10
BEGIN_RES CYS A  12
REMARK  2 active torsions:
REMARK  status: ('A' for Active; 'I' for Inactive)
REMARK    3  A    between atoms: CA   and  CB  
REMARK    4  A    between atoms: CB   and  SG  
ROOT
ATOM      6  CA  CYS A  12      -8.555   0.470   8.750  1.00 23.16     0.185 C 
ENDROOT
BRANCH   6   7
ATOM      7  CB  CYS A  12      -9.828   0.763   9.555  1.00 20.43     0.105 C 
BRANCH   7   8
ATOM      8  SG  CYS A  12     -11.377   0.839   8.603  1.00 24.64    -0.180 SA
ATOM      9  H04 CYS A  12     -12.164  -0.188   8.948  1.00 24.64     0.101 HD
ENDBRANCH   7   8
ENDBRANCH   6   7
END_RES CYS A  12
BEGIN_RES GLN A  14
REMARK  3 active torsions:
REMARK  status: ('A' for Active; 'I' for Inactive)
REMARK    5  A    between atoms: CA   and  CB  
REMARK    6  A    between atoms: CB   and  CG  
REMARK    7  A    between atoms: CG   and  CD  
REMARK       I    between atoms: CD   and  NE2 
ROOT
ATOM     10  CA  GLN A  14      -4.645   5.402  11.377  1.00 10.43     0.177 C 
ENDROOT
BRANCH  10  11
ATOM     11  CB  GLN A  14      -5.541   5.549  12.608  1.00 14.45     0.044 C 
BRANCH  11  12
ATOM     12  CG  GLN A  14      -6.480   6.732  12.550  1.00 13.74     0.105 C 
BRANCH  12  13
ATOM     13  CD  GLN A  14      -5.769   8.045  12.775  1.00 16.29     0.215 C 
ATOM     14  NE2 GLN A  14      -5.035   8.135  13.863  1.00  8.57    -0.370 N 
ATOM     15  H06 GLN A  14      -4.535   8.989  14.065  1.00  8.57     0.159 HD
ATOM     16  H07 GLN A  14      -4.970   7.350  14.495  1.00  8.57     0.159 HD
ATOM     17  OE1 GLN A  14      -5.877   8.964  11.979  1.00 23.55    -0.274 OA
ENDBRANCH  12  13
ENDBRANCH  11  12
ENDBRANCH  10  11
END_RES GLN A  14
BEGIN_RES SER A  16
REMARK  2 active torsions:
REMARK  status: ('A' for Active; 'I' for Inactive)
REMARK    8  A    between atoms: CA   and  CB  
REMARK    9  A    between atoms: CB   and  OG  
ROOT
ATOM     18  CA  SER A  16      -1.305  10.019  14.282  1.00  2.34     0.200 C 
ENDROOT
BRANCH  18  19
ATOM     19  CB  SER A  16      -2.242   9.935  15.479  1.00  3.12     0.199 C 
BRANCH  19  20
ATOM     20  OG  SER A  16      -2.077   8.697  16.148  1.00  1.00    -0.398 OA
ATOM     21  H04 SER A  16      -1.144   8.478  16.191  1.00  1.00     0.209 HD
ENDBRANCH  19  20
ENDBRANCH  18  19
END_RES SER A  16
BEGIN_RES LEU A  32
REMARK  2 active torsions:
REMARK  status: ('A' for Active; 'I' for Inactive)
REMARK   10  A    between atoms: CA   and  CB  
REMARK   11  A    between atoms: CB   and  CG  
ROOT
ATOM     22  CA  LEU A  32     -10.272  -4.106   1.587  1.00 16.16     0.177 C 
ENDROOT
BRANCH  22  23
ATOM     23  CB  LEU A  32     -11.613  -3.858   0.880  1.00 12.35     0.038 C 
BRANCH  23  24
ATOM     24  CG  LEU A  32     -12.621  -4.994   1.146  1.00  9.77    -0.020 C 
ATOM     25  CD1 LEU A  32     -13.008  -5.022   2.606  1.00  4.35     0.009 C 
ATOM     26  CD2 LEU A  32     -13.854  -4.828   0.297  1.00 10.60     0.009 C 
ENDBRANCH  23  24
ENDBRANCH  22  23
END_RES LEU A  32
BEGIN_RES HIS A  38
REMARK  2 active torsions:
REMARK  status: ('A' for Active; 'I' for Inactive)
REMARK   12  A    between atoms: CA   and  CB  
REMARK   13  A    between atoms: CB   and  CG  
ROOT
ATOM     27  CA  HIS A  38     -10.959   4.941   1.621  1.00 16.94     0.182 C 
ENDROOT
BRANCH  27  28
ATOM     28  CB  HIS A  38     -11.810   4.840   2.881  1.00 15.47     0.095 C 
BRANCH  28  29
ATOM     29  CG  HIS A  38     -13.011   3.964   2.730  1.00 18.62     0.053 A 
ATOM     30  CD2 HIS A  38     -14.193   4.176   2.102  1.00 15.06     0.116 A 
ATOM     31  NE2 HIS A  38     -14.933   3.030   2.241  1.00 18.12    -0.359 N 
ATOM     32  CE1 HIS A  38     -14.235   2.147   2.929  1.00 14.78     0.207 A 
ATOM     33  H06 HIS A  38     -15.864   2.886   1.876  1.00 18.12     0.166 HD
ATOM     34  ND1 HIS A  38     -13.072   2.684   3.237  1.00 16.58    -0.247 NA
ENDBRANCH  28  29
ENDBRANCH  27  28
END_RES HIS A  38
BEGIN_RES TRP A  63
REMARK  2 active torsions:
REMARK  status: ('A' for Active; 'I' for Inactive)
REMARK   14  A    between atoms: CA   and  CB  
REMARK   15  A    between atoms: CB   and  CG  
ROOT
ATOM     35  CA  TRP A  63     -22.437   6.257   6.543  1.00 27.04     0.181 C 
ENDROOT
BRANCH  35  36
ATOM     36  CB  TRP A  63     -22.360   6.642   5.068  1.00 31.37     0.075 C 
BRANCH  36  37
ATOM     37  CG  TRP A  63     -20.954   6.729   4.513  1.00 34.37    -0.028 A 
ATOM     38  CD2 TRP A  63     -19.895   5.776   4.678  1.00 33.79    -0.002 A 
ATOM     39  CE3 TRP A  63     -19.768   4.576   5.383  1.00 32.99     0.014 A 
ATOM     40  CE2 TRP A  63     -18.793   6.241   3.928  1.00 35.84     0.042 A 
ATOM     41  CZ3 TRP A  63     -18.564   3.889   5.319  1.00 32.93     0.001 A 
ATOM     42  CH2 TRP A  63     -17.486   4.379   4.564  1.00 39.24     0.002 A 
ATOM     43  CZ2 TRP A  63     -17.582   5.551   3.862  1.00 37.99     0.030 A 
ATOM     44  NE1 TRP A  63     -19.169   7.418   3.340  1.00 37.98    -0.365 N 
ATOM     45  H06 TRP A  63     -18.588   7.986   2.740  1.00 37.98     0.165 HD
ATOM     46  CD1 TRP A  63     -20.464   7.702   3.699  1.00 38.16     0.096 A 
ENDBRANCH  36  37
ENDBRANCH  35  36
END_RES TRP A  63
BEGIN_RES LEU A  66
REMARK  2 active torsions:
REMARK  status: ('A' for Active; 'I' for Inactive)
REMARK   16  A    between atoms: CA   and  CB  
REMARK   17  A    between atoms: CB   and  CG  
ROOT
ATOM     47  CA  LEU A  66     -20.004   6.489  11.120  1.00 10.90     0.177 C 
ENDROOT
BRANCH  47  48
ATOM     48  CB  LEU A  66     -19.626   5.453  10.069  1.00 13.57     0.038 C 
BRANCH  48  49
ATOM     49  CG  LEU A  66     -20.076   4.013  10.313  1.00  8.73    -0.020 C 
ATOM     50  CD1 LEU A  66     -19.359   3.068   9.383  1.00 14.23     0.009 C 
ATOM     51  CD2 LEU A  66     -19.775   3.655  11.746  1.00  1.92     0.009 C 
ENDBRANCH  48  49
ENDBRANCH  47  48
END_RES LEU A  66
BEGIN_RES PHE A  70
REMARK  2 active torsions:
REMARK  status: ('A' for Active; 'I' for Inactive)
REMARK   18  A    between atoms: CA   and  CB  
REMARK   19  A    between atoms: CB   and  CG  
ROOT
ATOM     52  CA  PHE A  70     -14.974   9.434  13.165  1.00  8.78     0.180 C 
ENDROOT
BRANCH  52  53
ATOM     53  CB  PHE A  70     -14.707   9.132  11.681  1.00  6.33     0.073 C 
BRANCH  53  54
ATOM     54  CG  PHE A  70     -13.936   7.859  11.459  1.00  3.42    -0.056 A 
ATOM     55  CD1 PHE A  70     -13.629   7.423  10.179  1.00 13.88     0.007 A 
ATOM     56  CE1 PHE A  70     -12.949   6.209   9.977  1.00 12.71     0.001 A 
ATOM     57  CZ  PHE A  70     -12.573   5.425  11.068  1.00  4.21     0.000 A 
ATOM     58  CE2 PHE A  70     -12.871   5.851  12.349  1.00  2.83     0.001 A 
ATOM     59  CD2 PHE A  70     -13.551   7.066  12.540  1.00  1.00     0.007 A 
ENDBRANCH  53  54
ENDBRANCH  52  53
END_RES PHE A  70
BEGIN_RES TYR A  73
REMARK  3 active torsions:
REMARK  status: ('A' for Active; 'I' for Inactive)
REMARK   20  A    between atoms: CA   and  CB  
REMARK   21  A    between atoms: CB   and  CG  
REMARK   22  A    between atoms: CZ   and  OH  
ROOT
ATOM     60  CA  TYR A  73     -13.212  10.166  17.260  1.00 12.17     0.180 C 
ENDROOT
BRANCH  60  61
ATOM     61  CB  TYR A  73     -13.301   8.846  16.517  1.00 12.84     0.073 C 
BRANCH  61  62
ATOM     62  CG  TYR A  73     -13.450   7.675  17.424  1.00 15.89    -0.056 A 
ATOM     63  CD1 TYR A  73     -13.401   7.824  18.792  1.00 16.00     0.010 A 
ATOM     64  CE1 TYR A  73     -13.510   6.724  19.643  1.00 13.55     0.037 A 
ATOM     65  CZ  TYR A  73     -13.669   5.464  19.103  1.00 18.13     0.065 A 
ATOM     66  CE2 TYR A  73     -13.723   5.288  17.740  1.00 15.89     0.037 A 
ATOM     67  CD2 TYR A  73     -13.614   6.395  16.907  1.00 21.86     0.010 A 
BRANCH  65  68
ATOM     68  OH  TYR A  73     -13.784   4.368  19.922  1.00 12.12    -0.361 OA
ATOM     69  H08 TYR A  73     -13.463   4.588  20.799  1.00 12.12     0.217 HD
ENDBRANCH  65  68
ENDBRANCH  61  62
ENDBRANCH  60  61
END_RES TYR A  73
BEGIN_RES PHE A  77
REMARK  2 active torsions:
REMARK  status: ('A' for Active; 'I' for Inactive)
REMARK   23  A    between atoms: CA   and  CB  
REMARK   24  A    between atoms: CB   and  CG  
ROOT
ATOM     70  CA  PHE A  77      -8.400  10.581  20.110  1.00 17.17     0.180 C 
ENDROOT
BRANCH  70  71
ATOM     71  CB  PHE A  77      -8.228   9.750  18.851  1.00 10.44     0.073 C 
BRANCH  71  72
ATOM     72  CG  PHE A  77      -8.852   8.392  18.935  1.00  6.07    -0.056 A 
ATOM     73  CD2 PHE A  77      -8.948   7.740  20.143  1.00  9.61     0.007 A 
ATOM     74  CE2 PHE A  77      -9.528   6.480  20.230  1.00  1.00     0.001 A 
ATOM     75  CZ  PHE A  77     -10.021   5.865  19.092  1.00  1.92     0.000 A 
ATOM     76  CE1 PHE A  77      -9.934   6.505  17.876  1.00  9.25     0.001 A 
ATOM     77  CD1 PHE A  77      -9.348   7.768  17.802  1.00  9.63     0.007 A 
ENDBRANCH  71  72
ENDBRANCH  70  71
END_RES PHE A  77
BEGIN_RES LEU A  96
REMARK  2 active torsions:
REMARK  status: ('A' for Active; 'I' for Inactive)
REMARK   25  A    between atoms: CA   and  CB  
REMARK   26  A    between atoms: CB   and  CG  
ROOT
ATOM     78  CA  LEU A  96       0.717   6.481  17.359  1.00 16.08     0.177 C 
ENDROOT
BRANCH  78  79
ATOM     79  CB  LEU A  96      -0.370   7.101  18.230  1.00 18.83     0.038 C 
BRANCH  79  80
ATOM     80  CG  LEU A  96      -0.948   6.162  19.288  1.00 19.03    -0.020 C 
ATOM     81  CD1 LEU A  96       0.176   5.666  20.168  1.00 28.17     0.009 C 
ATOM     82  CD2 LEU A  96      -1.946   6.894  20.155  1.00 22.01     0.009 C 
ENDBRANCH  79  80
ENDBRANCH  78  79
END_RES LEU A  96
BEGIN_RES VAL A  98
REMARK  1 active torsions:
REMARK  status: ('A' for Active; 'I' for Inactive)
REMARK   27  A    between atoms: CA   and  CB  
ROOT
ATOM     83  CA  VAL A  98      -3.928   2.082  14.897  1.00 19.83     0.180 C 
ENDROOT
BRANCH  83  84
ATOM     84  CB  VAL A  98      -5.203   2.807  15.281  1.00 17.87     0.009 C 
ATOM     85  CG2 VAL A  98      -4.930   4.279  15.449  1.00 29.90     0.012 C 
ATOM     86  CG1 VAL A  98      -5.758   2.214  16.559  1.00 14.79     0.012 C 
ENDBRANCH  83  84
END_RES VAL A  98
BEGIN_RES ASN A 112
REMARK  2 active torsions:
REMARK  status: ('A' for Active; 'I' for Inactive)
REMARK   28  A    between atoms: CA   and  CB  
REMARK   29  A    between atoms: CB   and  CG  
REMARK       I    between atoms: CG   and  ND2 
ROOT
ATOM     87  CA  ASN A 112     -11.790  -8.793  14.069  1.00 37.70     0.185 C 
ENDROOT
BRANCH  87  88
ATOM     88  CB  ASN A 112     -12.992  -7.945  14.465  1.00 26.24     0.137 C 
BRANCH  88  89
ATOM     89  CG  ASN A 112     -13.814  -8.563  15.574  1.00 21.77     0.217 C 
ATOM     90  ND2 ASN A 112     -14.962  -9.133  15.207  1.00  9.31    -0.370 N 
ATOM     91  H04 ASN A 112     -15.557  -9.562  15.902  1.00  9.31     0.159 HD
ATOM     92  H05 ASN A 112     -15.236  -9.137  14.235  1.00  9.31     0.159 HD
ATOM     93  OD1 ASN A 112     -13.428  -8.526  16.748  1.00 21.61    -0.274 OA
ENDBRANCH  88  89
ENDBRANCH  87  88
END_RES ASN A 112
BEGIN_RES PHE A 114
REMARK  2 active torsions:
REMARK  status: ('A' for Active; 'I' for Inactive)
REMARK   30  A    between atoms: CA   and  CB  
REMARK   31  A    between atoms: CB   and  CG  
ROOT
ATOM     94  CA  PHE A 114      -7.754  -3.619  17.012  1.00 26.06     0.180 C 
ENDROOT
BRANCH  94  95
ATOM     95  CB  PHE A 114      -8.890  -3.080  17.867  1.00 19.95     0.073 C 
BRANCH  95  96
ATOM     96  CG  PHE A 114      -9.188  -1.637  17.615  1.00 17.65    -0.056 A 
ATOM     97  CD1 PHE A 114     -10.501  -1.189  17.510  1.00 13.01     0.007 A 
ATOM     98  CE1 PHE A 114     -10.778   0.146  17.247  1.00  6.74     0.001 A 
ATOM     99  CZ  PHE A 114      -9.737   1.056  17.088  1.00  6.27     0.000 A 
ATOM    100  CE2 PHE A 114      -8.426   0.622  17.191  1.00 17.36     0.001 A 
ATOM    101  CD2 PHE A 114      -8.154  -0.725  17.455  1.00 18.39     0.007 A 
ENDBRANCH  95  96
ENDBRANCH  94  95
END_RES PHE A 114
BEGIN_RES VAL A 116
REMARK  1 active torsions:
REMARK  status: ('A' for Active; 'I' for Inactive)
REMARK   32  A    between atoms: CA   and  CB  
ROOT
ATOM    102  CA  VAL A 116      -2.467   0.283  18.565  1.00 13.48     0.180 C 
ENDROOT
BRANCH 102 103
ATOM    103  CB  VAL A 116      -3.101   1.238  19.599  1.00 20.86     0.009 C 
ATOM    104  CG1 VAL A 116      -3.000   2.680  19.094  1.00 25.01     0.012 C 
ATOM    105  CG2 VAL A 116      -4.532   0.848  19.886  1.00 25.34     0.012 C 
ENDBRANCH 102 103
END_RES VAL A 116
BEGIN_RES ILE A 123
REMARK  2 active torsions:
REMARK  status: ('A' for Active; 'I' for Inactive)
REMARK   33  A    between atoms: CA   and  CB  
REMARK   34  A    between atoms: CB   and  CG1 
ROOT
ATOM    106  CA  ILE A 123       1.557  -1.626  23.222  1.00 15.07     0.180 C 
ENDROOT
BRANCH 106 107
ATOM    107  CB  ILE A 123       1.697  -0.112  23.461  1.00 14.41     0.013 C 
ATOM    108  CG2 ILE A 123       3.095   0.205  23.961  1.00 18.35     0.012 C 
BRANCH 107 109
ATOM    109  CG1 ILE A 123       1.410   0.657  22.174  1.00 15.23     0.002 C 
ATOM    110  CD1 ILE A 123       0.224   1.586  22.275  1.00 14.67     0.005 C 
ENDBRANCH 107 109
ENDBRANCH 106 107
END_RES ILE A 123
BEGIN_RES LEU A 124
REMARK  2 active torsions:
REMARK  status: ('A' for Active; 'I' for Inactive)
REMARK   35  A    between atoms: CA   and  CB  
REMARK   36  A    between atoms: CB   and  CG  
ROOT
ATOM    111  CA  LEU A 124      -2.057  -2.686  23.524  1.00 11.86     0.177 C 
ENDROOT
BRANCH 111 112
ATOM    112  CB  LEU A 124      -2.698  -1.652  24.429  1.00 14.60     0.038 C 
BRANCH 112 113
ATOM    113  CG  LEU A 124      -2.626  -0.252  23.838  1.00 16.19    -0.020 C 
ATOM    114  CD1 LEU A 124      -4.047   0.205  23.455  1.00 22.07     0.009 C 
ATOM    115  CD2 LEU A 124      -1.985   0.681  24.834  1.00  9.12     0.009 C 
ENDBRANCH 112 113
ENDBRANCH 111 112
END_RES LEU A 124
BEGIN_RES PHE A 126
REMARK  2 active torsions:
REMARK  status: ('A' for Active; 'I' for Inactive)
REMARK   37  A    between atoms: CA   and  CB  
REMARK   38  A    between atoms: CB   and  CG  
ROOT
ATOM    116  CA  PHE A 126      -8.784  -4.792  22.233  1.00 23.15     0.180 C 
ENDROOT
BRANCH 116 117
ATOM    117  CB  PHE A 126      -9.823  -4.011  21.461  1.00 20.65     0.073 C 
BRANCH 117 118
ATOM    118  CG  PHE A 126     -10.956  -3.554  22.294  1.00 23.65    -0.056 A 
ATOM    119  CD2 PHE A 126     -12.210  -4.121  22.153  1.00 36.63     0.007 A 
ATOM    120  CE2 PHE A 126     -13.283  -3.688  22.944  1.00 36.27     0.001 A 
ATOM    121  CZ  PHE A 126     -13.090  -2.681  23.878  1.00 18.06     0.000 A 
ATOM    122  CE1 PHE A 126     -11.840  -2.113  24.023  1.00  5.50     0.001 A 
ATOM    123  CD1 PHE A 126     -10.778  -2.553  23.233  1.00 15.29     0.007 A 
ENDBRANCH 117 118
ENDBRANCH 116 117
END_RES PHE A 126
BEGIN_RES TRP A 131
REMARK  2 active torsions:
REMARK  status: ('A' for Active; 'I' for Inactive)
REMARK   39  A    between atoms: CA   and  CB  
REMARK   40  A    between atoms: CB   and  CG  
ROOT
ATOM    124  CA  TRP A 131      -8.096  -3.335  26.542  1.00 14.52     0.181 C 
ENDROOT
BRANCH 124 125
ATOM    125  CB  TRP A 131      -7.651  -1.877  26.607  1.00 13.06     0.075 C 
BRANCH 125 126
ATOM    126  CG  TRP A 131      -8.048  -1.052  25.403  1.00 16.97    -0.028 A 
ATOM    127  CD2 TRP A 131      -9.135  -0.127  25.325  1.00 11.34    -0.002 A 
ATOM    128  CE2 TRP A 131      -9.134   0.419  24.026  1.00  5.87     0.042 A 
ATOM    129  CE3 TRP A 131     -10.113   0.293  26.234  1.00  3.80     0.014 A 
ATOM    130  CZ2 TRP A 131     -10.073   1.366  23.613  1.00  1.35     0.030 A 
ATOM    131  NE1 TRP A 131      -8.095  -0.149  23.342  1.00 13.90    -0.365 N 
ATOM    132  CH2 TRP A 131     -11.020   1.761  24.526  1.00  1.00     0.002 A 
ATOM    133  CZ3 TRP A 131     -11.047   1.230  25.829  1.00  1.00     0.001 A 
ATOM    134  CD1 TRP A 131      -7.446  -1.031  24.175  1.00 17.22     0.096 A 
ATOM    135  H07 TRP A 131      -7.844   0.047  22.384  1.00 13.90     0.165 HD
ENDBRANCH 125 126
ENDBRANCH 124 125
END_RES TRP A 131
BEGIN_RES LEU A 148
REMARK  2 active torsions:
REMARK  status: ('A' for Active; 'I' for Inactive)
REMARK   41  A    between atoms: CA   and  CB  
REMARK   42  A    between atoms: CB   and  CG  
ROOT
ATOM    136  CA  LEU A 148      -9.018   3.259  29.295  1.00 16.99     0.177 C 
ENDROOT
BRANCH 136 137
ATOM    137  CB  LEU A 148      -8.166   2.574  28.236  1.00  6.39     0.038 C 
BRANCH 137 138
ATOM    138  CG  LEU A 148      -8.012   3.169  26.851  1.00  1.00    -0.020 C 
ATOM    139  CD2 LEU A 148      -6.816   2.580  26.161  1.00  1.00     0.009 C 
ATOM    140  CD1 LEU A 148      -7.860   4.672  26.993  1.00  2.71     0.009 C 
ENDBRANCH 137 138
ENDBRANCH 136 137
END_RES LEU A 148
BEGIN_RES THR A 154
REMARK  2 active torsions:
REMARK  status: ('A' for Active; 'I' for Inactive)
REMARK   43  A    between atoms: CA   and  CB  
REMARK   44  A    between atoms: CB   and  OG1 
ROOT
ATOM    141  CA  THR A 154     -15.990   3.959  24.426  1.00 20.45     0.205 C 
ENDROOT
BRANCH 141 142
ATOM    142  CB  THR A 154     -14.777   4.829  24.694  1.00 16.79     0.146 C 
ATOM    143  CG2 THR A 154     -13.680   4.520  23.694  1.00 20.24     0.042 C 
BRANCH 142 144
ATOM    144  OG1 THR A 154     -15.153   6.205  24.557  1.00 18.84    -0.393 OA
ATOM    145  H06 THR A 154     -14.996   6.664  25.385  1.00 18.84     0.210 HD
ENDBRANCH 142 144
ENDBRANCH 141 142
END_RES THR A 154
BEGIN_RES VAL A 158
REMARK  1 active torsions:
REMARK  status: ('A' for Active; 'I' for Inactive)
REMARK   45  A    between atoms: CA   and  CB  
ROOT
ATOM    146  CA  VAL A 158     -15.487  -0.189  19.892  1.00 15.49     0.180 C 
ENDROOT
BRANCH 146 147
ATOM    147  CB  VAL A 158     -14.291  -0.273  20.822  1.00  6.52     0.009 C 
ATOM    148  CG1 VAL A 158     -13.247  -1.219  20.274  1.00  1.00     0.012 C 
ATOM    149  CG2 VAL A 158     -13.721   1.101  20.996  1.00  5.99     0.012 C 
ENDBRANCH 146 147
END_RES VAL A 158
BEGIN_RES LEU A 161
REMARK  2 active torsions:
REMARK  status: ('A' for Active; 'I' for Inactive)
REMARK   46  A    between atoms: CA   and  CB  
REMARK   47  A    between atoms: CB   and  CG  
ROOT
ATOM    150  CA  LEU A 161     -18.031  -1.858  15.935  1.00 13.31     0.177 C 
ENDROOT
BRANCH 150 151
ATOM    151  CB  LEU A 161     -17.046  -0.706  16.001  1.00 14.13     0.038 C 
BRANCH 151 152
ATOM    152  CG  LEU A 161     -17.302   0.456  15.050  1.00 19.39    -0.020 C 
ATOM    153  CD2 LEU A 161     -16.418   1.627  15.405  1.00 27.75     0.009 C 
ATOM    154  CD1 LEU A 161     -18.750   0.855  15.147  1.00 18.59     0.009 C 
ENDBRANCH 151 152
ENDBRANCH 150 151
END_RES LEU A 161
BEGIN_RES GLN A 168
REMARK  3 active torsions:
REMARK  status: ('A' for Active; 'I' for Inactive)
REMARK   48  A    between atoms: CA   and  CB  
REMARK   49  A    between atoms: CB   and  CG  
REMARK   50  A    between atoms: CG   and  CD  
REMARK       I    between atoms: CD   and  NE2 
ROOT
ATOM    155  CA  GLN A 168     -22.035  -6.020   8.155  1.00 30.94     0.177 C 
ENDROOT
BRANCH 155 156
ATOM    156  CB  GLN A 168     -23.054  -5.218   8.946  1.00 41.76     0.044 C 
BRANCH 156 157
ATOM    157  CG  GLN A 168     -24.480  -5.415   8.508  1.00 61.20     0.105 C 
BRANCH 157 158
ATOM    158  CD  GLN A 168     -24.986  -4.246   7.686  1.00 75.49     0.215 C 
ATOM    159  NE2 GLN A 168     -25.548  -3.246   8.367  1.00 85.00    -0.370 N 
ATOM    160  H06 GLN A 168     -25.907  -2.439   7.876  1.00 85.00     0.159 HD
ATOM    161  H07 GLN A 168     -25.616  -3.296   9.374  1.00 85.00     0.159 HD
ATOM    162  OE1 GLN A 168     -24.880  -4.239   6.451  1.00 73.64    -0.274 OA
ENDBRANCH 157 158
ENDBRANCH 156 157
ENDBRANCH 155 156
END_RES GLN A 168
ENDMDL
MODEL 9
REMARK VINA RESULT:      -7.1      1.494      4.144
REMARK  Name = human_CD1d_CTAB_pred.rank_0
REMARK  15 active torsions:
REMARK  status: ('A' for Active; 'I' for Inactive)
REMARK    1  A    between atoms: N_2  and  C_17
REMARK    2  A    between atoms: C_3  and  C_4
REMARK    3  A    between atoms: C_4  and  C_5
REMARK    4  A    between atoms: C_5  and  C_6
REMARK    5  A    between atoms: C_6  and  C_7
REMARK    6  A    between atoms: C_7  and  C_8
REMARK    7  A    between atoms: C_8  and  C_9
REMARK    8  A    between atoms: C_9  and  C_10
REMARK    9  A    between atoms: C_10  and  C_11
REMARK   10  A    between atoms: C_11  and  C_12
REMARK   11  A    between atoms: C_12  and  C_13
REMARK   12  A    between atoms: C_13  and  C_14
REMARK   13  A    between atoms: C_14  and  C_15
REMARK   14  A    between atoms: C_15  and  C_16
REMARK   15  A    between atoms: C_16  and  C_17
REMARK                            x       y       z     vdW  Elec       q    Type
REMARK                         _______ _______ _______ _____ _____    ______ ____
ROOT
ATOM      1  C   UNL     1      -3.849   3.520  22.814  0.00  0.00    +0.000 C 
ENDROOT
BRANCH   1   2
ATOM      2  C   UNL     1      -2.895   4.665  22.984  0.00  0.00    +0.000 C 
BRANCH   2   3
ATOM      3  C   UNL     1      -3.110   5.364  24.313  0.00  0.00    +0.000 C 
BRANCH   3   4
ATOM      4  C   UNL     1      -2.572   4.525  25.453  0.00  0.00    +0.000 C 
BRANCH   4   5
ATOM      5  C   UNL     1      -1.152   5.006  25.821  0.00  0.00    +0.000 C 
BRANCH   5   6
ATOM      6  C   UNL     1      -0.095   4.200  25.084  0.00  0.00    +0.000 C 
BRANCH   6   7
ATOM      7  C   UNL     1       0.643   5.113  24.107  0.00  0.00    +0.000 C 
BRANCH   7   8
ATOM      8  C   UNL     1       0.983   6.430  24.765  0.00  0.00    +0.000 C 
BRANCH   8  10
ATOM      9  C   UNL     1       1.140   8.850  24.278  0.00  0.00    +0.000 C 
ATOM     10  C   UNL     1       0.513   7.558  23.860  0.00  0.00    +0.000 C 
ENDBRANCH   8  10
ENDBRANCH   7   8
ENDBRANCH   6   7
ENDBRANCH   5   6
ENDBRANCH   4   5
ENDBRANCH   3   4
ENDBRANCH   2   3
ENDBRANCH   1   2
BRANCH   1  11
ATOM     11  C   UNL     1      -5.278   3.978  23.011  0.00  0.00    +0.000 C 
BRANCH  11  12
ATOM     12  C   UNL     1      -6.141   3.465  21.879  0.00  0.00    +0.000 C 
BRANCH  12  13
ATOM     13  C   UNL     1      -5.980   4.365  20.672  0.00  0.00    +0.000 C 
BRANCH  13  14
ATOM     14  C   UNL     1      -5.957   5.819  21.114  0.00  0.00    +0.000 C 
BRANCH  14  15
ATOM     15  C   UNL     1      -5.401   6.699  19.977  0.00  0.00    +0.000 C 
BRANCH  15  16
ATOM     16  C   UNL     1      -5.743   6.101  18.620  0.00  0.00    +0.000 C 
BRANCH  16  17
ATOM     17  N   UNL     1      -5.075   6.856  17.553  0.00  0.00    +0.000 N 
ATOM     18  C   UNL     1      -5.883   6.714  16.356  0.00  0.00    +0.000 C 
ATOM     19  C   UNL     1      -3.777   6.278  17.302  0.00  0.00    +0.000 C 
ATOM     20  C   UNL     1      -4.958   8.277  17.879  0.00  0.00    +0.000 C 
ENDBRANCH  16  17
ENDBRANCH  15  16
ENDBRANCH  14  15
ENDBRANCH  13  14
ENDBRANCH  12  13
ENDBRANCH  11  12
ENDBRANCH   1  11
TORSDOF 15
BEGIN_RES LEU A  10
REMARK  2 active torsions:
REMARK  status: ('A' for Active; 'I' for Inactive)
REMARK    1  A    between atoms: CA   and  CB  
REMARK    2  A    between atoms: CB   and  CG  
ROOT
ATOM      1  CA  LEU A  10     -10.775  -4.871   5.898  1.00 25.14     0.177 C 
ENDROOT
BRANCH   1   2
ATOM      2  CB  LEU A  10     -12.191  -4.387   6.226  1.00 17.87     0.038 C 
BRANCH   2   3
ATOM      3  CG  LEU A  10     -12.392  -2.877   6.084  1.00 24.95    -0.020 C 
ATOM      4  CD2 LEU A  10     -13.673  -2.493   6.744  1.00 26.38     0.009 C 
ATOM      5  CD1 LEU A  10     -12.399  -2.465   4.622  1.00 28.12     0.009 C 
ENDBRANCH   2   3
ENDBRANCH   1   2
END_RES LEU A  10
BEGIN_RES CYS A  12
REMARK  2 active torsions:
REMARK  status: ('A' for Active; 'I' for Inactive)
REMARK    3  A    between atoms: CA   and  CB  
REMARK    4  A    between atoms: CB   and  SG  
ROOT
ATOM      6  CA  CYS A  12      -8.555   0.470   8.750  1.00 23.16     0.185 C 
ENDROOT
BRANCH   6   7
ATOM      7  CB  CYS A  12      -9.828   0.763   9.555  1.00 20.43     0.105 C 
BRANCH   7   8
ATOM      8  SG  CYS A  12     -10.952   2.008   8.850  1.00 24.64    -0.180 SA
ATOM      9  H04 CYS A  12     -10.368   2.591   7.795  1.00 24.64     0.101 HD
ENDBRANCH   7   8
ENDBRANCH   6   7
END_RES CYS A  12
BEGIN_RES GLN A  14
REMARK  3 active torsions:
REMARK  status: ('A' for Active; 'I' for Inactive)
REMARK    5  A    between atoms: CA   and  CB  
REMARK    6  A    between atoms: CB   and  CG  
REMARK    7  A    between atoms: CG   and  CD  
REMARK       I    between atoms: CD   and  NE2 
ROOT
ATOM     10  CA  GLN A  14      -4.645   5.402  11.377  1.00 10.43     0.177 C 
ENDROOT
BRANCH  10  11
ATOM     11  CB  GLN A  14      -5.541   5.549  12.608  1.00 14.45     0.044 C 
BRANCH  11  12
ATOM     12  CG  GLN A  14      -6.750   6.430  12.390  1.00 13.74     0.105 C 
BRANCH  12  13
ATOM     13  CD  GLN A  14      -6.374   7.861  12.091  1.00 16.29     0.215 C 
ATOM     14  NE2 GLN A  14      -5.503   8.420  12.903  1.00  8.57    -0.370 N 
ATOM     15  H06 GLN A  14      -5.213   9.376  12.751  1.00  8.57     0.159 HD
ATOM     16  H07 GLN A  14      -5.123   7.894  13.676  1.00  8.57     0.159 HD
ATOM     17  OE1 GLN A  14      -6.860   8.455  11.141  1.00 23.55    -0.274 OA
ENDBRANCH  12  13
ENDBRANCH  11  12
ENDBRANCH  10  11
END_RES GLN A  14
BEGIN_RES SER A  16
REMARK  2 active torsions:
REMARK  status: ('A' for Active; 'I' for Inactive)
REMARK    8  A    between atoms: CA   and  CB  
REMARK    9  A    between atoms: CB   and  OG  
ROOT
ATOM     18  CA  SER A  16      -1.305  10.019  14.282  1.00  2.34     0.200 C 
ENDROOT
BRANCH  18  19
ATOM     19  CB  SER A  16      -2.242   9.935  15.479  1.00  3.12     0.199 C 
BRANCH  19  20
ATOM     20  OG  SER A  16      -3.477   9.354  15.098  1.00  1.00    -0.398 OA
ATOM     21  H04 SER A  16      -4.169  10.019  15.137  1.00  1.00     0.209 HD
ENDBRANCH  19  20
ENDBRANCH  18  19
END_RES SER A  16
BEGIN_RES LEU A  32
REMARK  2 active torsions:
REMARK  status: ('A' for Active; 'I' for Inactive)
REMARK   10  A    between atoms: CA   and  CB  
REMARK   11  A    between atoms: CB   and  CG  
ROOT
ATOM     22  CA  LEU A  32     -10.272  -4.106   1.587  1.00 16.16     0.177 C 
ENDROOT
BRANCH  22  23
ATOM     23  CB  LEU A  32     -11.613  -3.858   0.880  1.00 12.35     0.038 C 
BRANCH  23  24
ATOM     24  CG  LEU A  32     -12.574  -5.054   1.035  1.00  9.77    -0.020 C 
ATOM     25  CD1 LEU A  32     -13.010  -5.194   2.475  1.00  4.35     0.009 C 
ATOM     26  CD2 LEU A  32     -13.783  -4.890   0.152  1.00 10.60     0.009 C 
ENDBRANCH  23  24
ENDBRANCH  22  23
END_RES LEU A  32
BEGIN_RES HIS A  38
REMARK  2 active torsions:
REMARK  status: ('A' for Active; 'I' for Inactive)
REMARK   12  A    between atoms: CA   and  CB  
REMARK   13  A    between atoms: CB   and  CG  
ROOT
ATOM     27  CA  HIS A  38     -10.959   4.941   1.621  1.00 16.94     0.182 C 
ENDROOT
BRANCH  27  28
ATOM     28  CB  HIS A  38     -11.810   4.840   2.881  1.00 15.47     0.095 C 
BRANCH  28  29
ATOM     29  CG  HIS A  38     -12.998   3.944   2.737  1.00 18.62     0.053 A 
ATOM     30  CD2 HIS A  38     -14.162   4.113   2.066  1.00 15.06     0.116 A 
ATOM     31  NE2 HIS A  38     -14.895   2.967   2.239  1.00 18.12    -0.359 N 
ATOM     32  CE1 HIS A  38     -14.209   2.125   2.988  1.00 14.78     0.207 A 
ATOM     33  H06 HIS A  38     -15.814   2.796   1.854  1.00 18.12     0.166 HD
ATOM     34  ND1 HIS A  38     -13.061   2.690   3.303  1.00 16.58    -0.247 NA
ENDBRANCH  28  29
ENDBRANCH  27  28
END_RES HIS A  38
BEGIN_RES TRP A  63
REMARK  2 active torsions:
REMARK  status: ('A' for Active; 'I' for Inactive)
REMARK   14  A    between atoms: CA   and  CB  
REMARK   15  A    between atoms: CB   and  CG  
ROOT
ATOM     35  CA  TRP A  63     -22.437   6.257   6.543  1.00 27.04     0.181 C 
ENDROOT
BRANCH  35  36
ATOM     36  CB  TRP A  63     -22.360   6.642   5.068  1.00 31.37     0.075 C 
BRANCH  36  37
ATOM     37  CG  TRP A  63     -20.953   6.756   4.520  1.00 34.37    -0.028 A 
ATOM     38  CD2 TRP A  63     -19.895   5.796   4.640  1.00 33.79    -0.002 A 
ATOM     39  CE3 TRP A  63     -19.768   4.563   5.285  1.00 32.99     0.014 A 
ATOM     40  CE2 TRP A  63     -18.792   6.298   3.915  1.00 35.84     0.042 A 
ATOM     41  CZ3 TRP A  63     -18.565   3.880   5.189  1.00 32.93     0.001 A 
ATOM     42  CH2 TRP A  63     -17.486   4.406   4.461  1.00 39.24     0.002 A 
ATOM     43  CZ2 TRP A  63     -17.581   5.611   3.817  1.00 37.99     0.030 A 
ATOM     44  NE1 TRP A  63     -19.166   7.502   3.386  1.00 37.98    -0.365 N 
ATOM     45  H06 TRP A  63     -18.584   8.099   2.815  1.00 37.98     0.165 HD
ATOM     46  CD1 TRP A  63     -20.462   7.768   3.756  1.00 38.16     0.096 A 
ENDBRANCH  36  37
ENDBRANCH  35  36
END_RES TRP A  63
BEGIN_RES LEU A  66
REMARK  2 active torsions:
REMARK  status: ('A' for Active; 'I' for Inactive)
REMARK   16  A    between atoms: CA   and  CB  
REMARK   17  A    between atoms: CB   and  CG  
ROOT
ATOM     47  CA  LEU A  66     -20.004   6.489  11.120  1.00 10.90     0.177 C 
ENDROOT
BRANCH  47  48
ATOM     48  CB  LEU A  66     -19.626   5.453  10.069  1.00 13.57     0.038 C 
BRANCH  48  49
ATOM     49  CG  LEU A  66     -19.741   3.981  10.464  1.00  8.73    -0.020 C 
ATOM     50  CD1 LEU A  66     -19.247   3.093   9.353  1.00 14.23     0.009 C 
ATOM     51  CD2 LEU A  66     -18.923   3.756  11.710  1.00  1.92     0.009 C 
ENDBRANCH  48  49
ENDBRANCH  47  48
END_RES LEU A  66
BEGIN_RES PHE A  70
REMARK  2 active torsions:
REMARK  status: ('A' for Active; 'I' for Inactive)
REMARK   18  A    between atoms: CA   and  CB  
REMARK   19  A    between atoms: CB   and  CG  
ROOT
ATOM     52  CA  PHE A  70     -14.974   9.434  13.165  1.00  8.78     0.180 C 
ENDROOT
BRANCH  52  53
ATOM     53  CB  PHE A  70     -14.707   9.132  11.681  1.00  6.33     0.073 C 
BRANCH  53  54
ATOM     54  CG  PHE A  70     -13.969   7.840  11.457  1.00  3.42    -0.056 A 
ATOM     55  CD1 PHE A  70     -13.482   7.100  12.523  1.00 13.88     0.007 A 
ATOM     56  CE1 PHE A  70     -12.753   5.918  12.305  1.00 12.71     0.001 A 
ATOM     57  CZ  PHE A  70     -12.510   5.473  11.005  1.00  4.21     0.000 A 
ATOM     58  CE2 PHE A  70     -12.992   6.202   9.933  1.00  2.83     0.001 A 
ATOM     59  CD2 PHE A  70     -13.720   7.382  10.162  1.00  1.00     0.007 A 
ENDBRANCH  53  54
ENDBRANCH  52  53
END_RES PHE A  70
BEGIN_RES TYR A  73
REMARK  3 active torsions:
REMARK  status: ('A' for Active; 'I' for Inactive)
REMARK   20  A    between atoms: CA   and  CB  
REMARK   21  A    between atoms: CB   and  CG  
REMARK   22  A    between atoms: CZ   and  OH  
ROOT
ATOM     60  CA  TYR A  73     -13.212  10.166  17.260  1.00 12.17     0.180 C 
ENDROOT
BRANCH  60  61
ATOM     61  CB  TYR A  73     -13.301   8.846  16.517  1.00 12.84     0.073 C 
BRANCH  61  62
ATOM     62  CG  TYR A  73     -13.323   7.666  17.424  1.00 15.89    -0.056 A 
ATOM     63  CD1 TYR A  73     -13.248   7.819  18.791  1.00 16.00     0.010 A 
ATOM     64  CE1 TYR A  73     -13.238   6.713  19.642  1.00 13.55     0.037 A 
ATOM     65  CZ  TYR A  73     -13.303   5.444  19.102  1.00 18.13     0.065 A 
ATOM     66  CE2 TYR A  73     -13.379   5.264  17.741  1.00 15.89     0.037 A 
ATOM     67  CD2 TYR A  73     -13.390   6.377  16.909  1.00 21.86     0.010 A 
BRANCH  65  68
ATOM     68  OH  TYR A  73     -13.299   4.342  19.921  1.00 12.12    -0.361 OA
ATOM     69  H08 TYR A  73     -13.007   3.574  19.424  1.00 12.12     0.217 HD
ENDBRANCH  65  68
ENDBRANCH  61  62
ENDBRANCH  60  61
END_RES TYR A  73
BEGIN_RES PHE A  77
REMARK  2 active torsions:
REMARK  status: ('A' for Active; 'I' for Inactive)
REMARK   23  A    between atoms: CA   and  CB  
REMARK   24  A    between atoms: CB   and  CG  
ROOT
ATOM     70  CA  PHE A  77      -8.400  10.581  20.110  1.00 17.17     0.180 C 
ENDROOT
BRANCH  70  71
ATOM     71  CB  PHE A  77      -8.228   9.750  18.851  1.00 10.44     0.073 C 
BRANCH  71  72
ATOM     72  CG  PHE A  77      -8.766   8.359  18.969  1.00  6.07    -0.056 A 
ATOM     73  CD2 PHE A  77      -9.074   7.630  17.843  1.00  9.61     0.007 A 
ATOM     74  CE2 PHE A  77      -9.573   6.336  17.942  1.00  1.00     0.001 A 
ATOM     75  CZ  PHE A  77      -9.763   5.763  19.188  1.00  1.92     0.000 A 
ATOM     76  CE1 PHE A  77      -9.458   6.478  20.325  1.00  9.25     0.001 A 
ATOM     77  CD1 PHE A  77      -8.961   7.776  20.210  1.00  9.63     0.007 A 
ENDBRANCH  71  72
ENDBRANCH  70  71
END_RES PHE A  77
BEGIN_RES LEU A  96
REMARK  2 active torsions:
REMARK  status: ('A' for Active; 'I' for Inactive)
REMARK   25  A    between atoms: CA   and  CB  
REMARK   26  A    between atoms: CB   and  CG  
ROOT
ATOM     78  CA  LEU A  96       0.717   6.481  17.359  1.00 16.08     0.177 C 
ENDROOT
BRANCH  78  79
ATOM     79  CB  LEU A  96      -0.370   7.101  18.230  1.00 18.83     0.038 C 
BRANCH  79  80
ATOM     80  CG  LEU A  96      -0.127   6.975  19.734  1.00 19.03    -0.020 C 
ATOM     81  CD1 LEU A  96       0.618   8.199  20.212  1.00 28.17     0.009 C 
ATOM     82  CD2 LEU A  96      -1.442   6.895  20.475  1.00 22.01     0.009 C 
ENDBRANCH  79  80
ENDBRANCH  78  79
END_RES LEU A  96
BEGIN_RES VAL A  98
REMARK  1 active torsions:
REMARK  status: ('A' for Active; 'I' for Inactive)
REMARK   27  A    between atoms: CA   and  CB  
ROOT
ATOM     83  CA  VAL A  98      -3.928   2.082  14.897  1.00 19.83     0.180 C 
ENDROOT
BRANCH  83  84
ATOM     84  CB  VAL A  98      -5.203   2.807  15.281  1.00 17.87     0.009 C 
ATOM     85  CG2 VAL A  98      -5.314   2.898  16.781  1.00 29.90     0.012 C 
ATOM     86  CG1 VAL A  98      -6.395   2.079  14.697  1.00 14.79     0.012 C 
ENDBRANCH  83  84
END_RES VAL A  98
BEGIN_RES ASN A 112
REMARK  2 active torsions:
REMARK  status: ('A' for Active; 'I' for Inactive)
REMARK   28  A    between atoms: CA   and  CB  
REMARK   29  A    between atoms: CB   and  CG  
REMARK       I    between atoms: CG   and  ND2 
ROOT
ATOM     87  CA  ASN A 112     -11.790  -8.793  14.069  1.00 37.70     0.185 C 
ENDROOT
BRANCH  87  88
ATOM     88  CB  ASN A 112     -12.992  -7.945  14.465  1.00 26.24     0.137 C 
BRANCH  88  89
ATOM     89  CG  ASN A 112     -13.814  -8.563  15.573  1.00 21.77     0.217 C 
ATOM     90  ND2 ASN A 112     -14.962  -9.133  15.207  1.00  9.31    -0.370 N 
ATOM     91  H04 ASN A 112     -15.558  -9.562  15.901  1.00  9.31     0.159 HD
ATOM     92  H05 ASN A 112     -15.236  -9.135  14.234  1.00  9.31     0.159 HD
ATOM     93  OD1 ASN A 112     -13.428  -8.527  16.748  1.00 21.61    -0.274 OA
ENDBRANCH  88  89
ENDBRANCH  87  88
END_RES ASN A 112
BEGIN_RES PHE A 114
REMARK  2 active torsions:
REMARK  status: ('A' for Active; 'I' for Inactive)
REMARK   30  A    between atoms: CA   and  CB  
REMARK   31  A    between atoms: CB   and  CG  
ROOT
ATOM     94  CA  PHE A 114      -7.754  -3.619  17.012  1.00 26.06     0.180 C 
ENDROOT
BRANCH  94  95
ATOM     95  CB  PHE A 114      -8.890  -3.080  17.867  1.00 19.95     0.073 C 
BRANCH  95  96
ATOM     96  CG  PHE A 114      -9.176  -1.633  17.628  1.00 17.65    -0.056 A 
ATOM     97  CD1 PHE A 114      -8.139  -0.710  17.516  1.00 13.01     0.007 A 
ATOM     98  CE1 PHE A 114      -8.404   0.639  17.324  1.00  6.74     0.001 A 
ATOM     99  CZ  PHE A 114      -9.720   1.085  17.237  1.00  6.27     0.000 A 
ATOM    100  CE2 PHE A 114     -10.760   0.176  17.345  1.00 17.36     0.001 A 
ATOM    101  CD2 PHE A 114     -10.485  -1.181  17.541  1.00 18.39     0.007 A 
ENDBRANCH  95  96
ENDBRANCH  94  95
END_RES PHE A 114
BEGIN_RES VAL A 116
REMARK  1 active torsions:
REMARK  status: ('A' for Active; 'I' for Inactive)
REMARK   32  A    between atoms: CA   and  CB  
ROOT
ATOM    102  CA  VAL A 116      -2.467   0.283  18.565  1.00 13.48     0.180 C 
ENDROOT
BRANCH 102 103
ATOM    103  CB  VAL A 116      -3.101   1.238  19.599  1.00 20.86     0.009 C 
ATOM    104  CG1 VAL A 116      -2.807   2.688  19.204  1.00 25.01     0.012 C 
ATOM    105  CG2 VAL A 116      -4.585   0.986  19.726  1.00 25.34     0.012 C 
ENDBRANCH 102 103
END_RES VAL A 116
BEGIN_RES ILE A 123
REMARK  2 active torsions:
REMARK  status: ('A' for Active; 'I' for Inactive)
REMARK   33  A    between atoms: CA   and  CB  
REMARK   34  A    between atoms: CB   and  CG1 
ROOT
ATOM    106  CA  ILE A 123       1.557  -1.626  23.222  1.00 15.07     0.180 C 
ENDROOT
BRANCH 106 107
ATOM    107  CB  ILE A 123       1.697  -0.112  23.461  1.00 14.41     0.013 C 
ATOM    108  CG2 ILE A 123       3.106   0.210  23.926  1.00 18.35     0.012 C 
BRANCH 107 109
ATOM    109  CG1 ILE A 123       1.374   0.658  22.183  1.00 15.23     0.002 C 
ATOM    110  CD1 ILE A 123       0.192   1.587  22.318  1.00 14.67     0.005 C 
ENDBRANCH 107 109
ENDBRANCH 106 107
END_RES ILE A 123
BEGIN_RES LEU A 124
REMARK  2 active torsions:
REMARK  status: ('A' for Active; 'I' for Inactive)
REMARK   35  A    between atoms: CA   and  CB  
REMARK   36  A    between atoms: CB   and  CG  
ROOT
ATOM    111  CA  LEU A 124      -2.057  -2.686  23.524  1.00 11.86     0.177 C 
ENDROOT
BRANCH 111 112
ATOM    112  CB  LEU A 124      -2.698  -1.652  24.429  1.00 14.60     0.038 C 
BRANCH 112 113
ATOM    113  CG  LEU A 124      -2.682  -0.262  23.810  1.00 16.19    -0.020 C 
ATOM    114  CD1 LEU A 124      -4.108   0.098  23.351  1.00 22.07     0.009 C 
ATOM    115  CD2 LEU A 124      -2.147   0.728  24.813  1.00  9.12     0.009 C 
ENDBRANCH 112 113
ENDBRANCH 111 112
END_RES LEU A 124
BEGIN_RES PHE A 126
REMARK  2 active torsions:
REMARK  status: ('A' for Active; 'I' for Inactive)
REMARK   37  A    between atoms: CA   and  CB  
REMARK   38  A    between atoms: CB   and  CG  
ROOT
ATOM    116  CA  PHE A 126      -8.784  -4.792  22.233  1.00 23.15     0.180 C 
ENDROOT
BRANCH 116 117
ATOM    117  CB  PHE A 126      -9.823  -4.011  21.461  1.00 20.65     0.073 C 
BRANCH 117 118
ATOM    118  CG  PHE A 126     -10.954  -3.551  22.295  1.00 23.65    -0.056 A 
ATOM    119  CD2 PHE A 126     -12.210  -4.115  22.155  1.00 36.63     0.007 A 
ATOM    120  CE2 PHE A 126     -13.281  -3.679  22.947  1.00 36.27     0.001 A 
ATOM    121  CZ  PHE A 126     -13.085  -2.672  23.880  1.00 18.06     0.000 A 
ATOM    122  CE1 PHE A 126     -11.833  -2.108  24.024  1.00  5.50     0.001 A 
ATOM    123  CD1 PHE A 126     -10.773  -2.550  23.234  1.00 15.29     0.007 A 
ENDBRANCH 117 118
ENDBRANCH 116 117
END_RES PHE A 126
BEGIN_RES TRP A 131
REMARK  2 active torsions:
REMARK  status: ('A' for Active; 'I' for Inactive)
REMARK   39  A    between atoms: CA   and  CB  
REMARK   40  A    between atoms: CB   and  CG  
ROOT
ATOM    124  CA  TRP A 131      -8.096  -3.335  26.542  1.00 14.52     0.181 C 
ENDROOT
BRANCH 124 125
ATOM    125  CB  TRP A 131      -7.651  -1.877  26.607  1.00 13.06     0.075 C 
BRANCH 125 126
ATOM    126  CG  TRP A 131      -8.049  -1.052  25.404  1.00 16.97    -0.028 A 
ATOM    127  CD2 TRP A 131      -9.133  -0.122  25.329  1.00 11.34    -0.002 A 
ATOM    128  CE2 TRP A 131      -9.135   0.423  24.030  1.00  5.87     0.042 A 
ATOM    129  CE3 TRP A 131     -10.106   0.303  26.242  1.00  3.80     0.014 A 
ATOM    130  CZ2 TRP A 131     -10.071   1.373  23.620  1.00  1.35     0.030 A 
ATOM    131  NE1 TRP A 131      -8.101  -0.150  23.342  1.00 13.90    -0.365 N 
ATOM    132  CH2 TRP A 131     -11.013   1.773  24.536  1.00  1.00     0.002 A 
ATOM    133  CZ3 TRP A 131     -11.037   1.243  25.840  1.00  1.00     0.001 A 
ATOM    134  CD1 TRP A 131      -7.452  -1.034  24.173  1.00 17.22     0.096 A 
ATOM    135  H07 TRP A 131      -7.854   0.044  22.383  1.00 13.90     0.165 HD
ENDBRANCH 125 126
ENDBRANCH 124 125
END_RES TRP A 131
BEGIN_RES LEU A 148
REMARK  2 active torsions:
REMARK  status: ('A' for Active; 'I' for Inactive)
REMARK   41  A    between atoms: CA   and  CB  
REMARK   42  A    between atoms: CB   and  CG  
ROOT
ATOM    136  CA  LEU A 148      -9.018   3.259  29.295  1.00 16.99     0.177 C 
ENDROOT
BRANCH 136 137
ATOM    137  CB  LEU A 148      -8.166   2.574  28.236  1.00  6.39     0.038 C 
BRANCH 137 138
ATOM    138  CG  LEU A 148      -8.005   3.173  26.854  1.00  1.00    -0.020 C 
ATOM    139  CD2 LEU A 148      -6.796   2.599  26.175  1.00  1.00     0.009 C 
ATOM    140  CD1 LEU A 148      -7.871   4.678  27.000  1.00  2.71     0.009 C 
ENDBRANCH 137 138
ENDBRANCH 136 137
END_RES LEU A 148
BEGIN_RES THR A 154
REMARK  2 active torsions:
REMARK  status: ('A' for Active; 'I' for Inactive)
REMARK   43  A    between atoms: CA   and  CB  
REMARK   44  A    between atoms: CB   and  OG1 
ROOT
ATOM    141  CA  THR A 154     -15.990   3.959  24.426  1.00 20.45     0.205 C 
ENDROOT
BRANCH 141 142
ATOM    142  CB  THR A 154     -14.777   4.829  24.694  1.00 16.79     0.146 C 
ATOM    143  CG2 THR A 154     -13.670   4.502  23.710  1.00 20.24     0.042 C 
BRANCH 142 144
ATOM    144  OG1 THR A 154     -15.147   6.204  24.534  1.00 18.84    -0.393 OA
ATOM    145  H06 THR A 154     -14.843   6.521  23.681  1.00 18.84     0.210 HD
ENDBRANCH 142 144
ENDBRANCH 141 142
END_RES THR A 154
BEGIN_RES VAL A 158
REMARK  1 active torsions:
REMARK  status: ('A' for Active; 'I' for Inactive)
REMARK   45  A    between atoms: CA   and  CB  
ROOT
ATOM    146  CA  VAL A 158     -15.487  -0.189  19.892  1.00 15.49     0.180 C 
ENDROOT
BRANCH 146 147
ATOM    147  CB  VAL A 158     -14.291  -0.273  20.822  1.00  6.52     0.009 C 
ATOM    148  CG1 VAL A 158     -13.244  -1.214  20.271  1.00  1.00     0.012 C 
ATOM    149  CG2 VAL A 158     -13.725   1.102  21.001  1.00  5.99     0.012 C 
ENDBRANCH 146 147
END_RES VAL A 158
BEGIN_RES LEU A 161
REMARK  2 active torsions:
REMARK  status: ('A' for Active; 'I' for Inactive)
REMARK   46  A    between atoms: CA   and  CB  
REMARK   47  A    between atoms: CB   and  CG  
ROOT
ATOM    150  CA  LEU A 161     -18.031  -1.858  15.935  1.00 13.31     0.177 C 
ENDROOT
BRANCH 150 151
ATOM    151  CB  LEU A 161     -17.046  -0.706  16.001  1.00 14.13     0.038 C 
BRANCH 151 152
ATOM    152  CG  LEU A 161     -17.467   0.582  15.305  1.00 19.39    -0.020 C 
ATOM    153  CD2 LEU A 161     -16.806   1.770  15.961  1.00 27.75     0.009 C 
ATOM    154  CD1 LEU A 161     -18.964   0.714  15.389  1.00 18.59     0.009 C 
ENDBRANCH 151 152
ENDBRANCH 150 151
END_RES LEU A 161
BEGIN_RES GLN A 168
REMARK  3 active torsions:
REMARK  status: ('A' for Active; 'I' for Inactive)
REMARK   48  A    between atoms: CA   and  CB  
REMARK   49  A    between atoms: CB   and  CG  
REMARK   50  A    between atoms: CG   and  CD  
REMARK       I    between atoms: CD   and  NE2 
ROOT
ATOM    155  CA  GLN A 168     -22.035  -6.020   8.155  1.00 30.94     0.177 C 
ENDROOT
BRANCH 155 156
ATOM    156  CB  GLN A 168     -23.054  -5.218   8.946  1.00 41.76     0.044 C 
BRANCH 156 157
ATOM    157  CG  GLN A 168     -24.486  -5.599   8.685  1.00 61.20     0.105 C 
BRANCH 157 158
ATOM    158  CD  GLN A 168     -25.092  -4.784   7.559  1.00 75.49     0.215 C 
ATOM    159  NE2 GLN A 168     -25.529  -3.566   7.881  1.00 85.00    -0.370 N 
ATOM    160  H06 GLN A 168     -25.945  -2.976   7.174  1.00 85.00     0.159 HD
ATOM    161  H07 GLN A 168     -25.445  -3.234   8.831  1.00 85.00     0.159 HD
ATOM    162  OE1 GLN A 168     -25.173  -5.243   6.410  1.00 73.64    -0.274 OA
ENDBRANCH 157 158
ENDBRANCH 156 157
ENDBRANCH 155 156
END_RES GLN A 168
ENDMDL
