MODEL 1
REMARK VINA RESULT:      -6.8      0.000      0.000
REMARK  Name = human_CD1d_LDAO_pred.rank_0
REMARK  11 active torsions:
REMARK  status: ('A' for Active; 'I' for Inactive)
REMARK    1  A    between atoms: N_2  and  C_14
REMARK    2  A    between atoms: C_4  and  C_5
REMARK    3  A    between atoms: C_5  and  C_6
REMARK    4  A    between atoms: C_6  and  C_7
REMARK    5  A    between atoms: C_7  and  C_8
REMARK    6  A    between atoms: C_8  and  C_9
REMARK    7  A    between atoms: C_9  and  C_10
REMARK    8  A    between atoms: C_10  and  C_11
REMARK    9  A    between atoms: C_11  and  C_12
REMARK   10  A    between atoms: C_12  and  C_13
REMARK   11  A    between atoms: C_13  and  C_14
REMARK                            x       y       z     vdW  Elec       q    Type
REMARK                         _______ _______ _______ _____ _____    ______ ____
ROOT
ATOM      1  C   UNL     1     -17.305   0.976   9.976  0.00  0.00    +0.000 C 
ENDROOT
BRANCH   1   2
ATOM      2  C   UNL     1     -18.456   0.988   8.937  0.00  0.00    +0.000 C 
BRANCH   2   3
ATOM      3  C   UNL     1     -18.264   2.053   7.818  0.00  0.00    +0.000 C 
BRANCH   3   4
ATOM      4  C   UNL     1     -16.830   2.575   7.779  0.00  0.00    +0.000 C 
BRANCH   4   5
ATOM      5  C   UNL     1     -16.756   4.066   8.144  0.00  0.00    +0.000 C 
BRANCH   5   6
ATOM      6  C   UNL     1     -15.489   4.720   7.571  0.00  0.00    +0.000 C 
BRANCH   6   8
ATOM      7  C   UNL     1     -17.140   6.612   7.494  0.00  0.00    +0.000 C 
ATOM      8  C   UNL     1     -15.754   6.125   7.081  0.00  0.00    +0.000 C 
ENDBRANCH   6   8
ENDBRANCH   5   6
ENDBRANCH   4   5
ENDBRANCH   3   4
ENDBRANCH   2   3
ENDBRANCH   1   2
BRANCH   1   9
ATOM      9  C   UNL     1     -16.741  -0.438  10.203  0.00  0.00    +0.000 C 
BRANCH   9  10
ATOM     10  C   UNL     1     -15.484  -0.681   9.358  0.00  0.00    +0.000 C 
BRANCH  10  11
ATOM     11  C   UNL     1     -14.244  -0.995  10.220  0.00  0.00    +0.000 C 
BRANCH  11  12
ATOM     12  C   UNL     1     -14.597  -1.153  11.700  0.00  0.00    +0.000 C 
BRANCH  12  13
ATOM     13  N   UNL     1     -13.708  -0.295  12.522  0.00  0.00    +0.000 N 
ATOM     14  O   UNL     1     -14.113   0.974  12.484  0.00  0.00    +0.000 OA
ATOM     15  C   UNL     1     -13.780  -0.774  13.915  0.00  0.00    +0.000 C 
ATOM     16  C   UNL     1     -12.342  -0.398  12.046  0.00  0.00    +0.000 C 
ENDBRANCH  12  13
ENDBRANCH  11  12
ENDBRANCH  10  11
ENDBRANCH   9  10
ENDBRANCH   1   9
TORSDOF 11
BEGIN_RES LEU A  10
REMARK  2 active torsions:
REMARK  status: ('A' for Active; 'I' for Inactive)
REMARK    1  A    between atoms: CA   and  CB  
REMARK    2  A    between atoms: CB   and  CG  
ROOT
ATOM      1  CA  LEU A  10     -10.775  -4.871   5.898  1.00 25.14     0.177 C 
ENDROOT
BRANCH   1   2
ATOM      2  CB  LEU A  10     -12.191  -4.387   6.226  1.00 17.87     0.038 C 
BRANCH   2   3
ATOM      3  CG  LEU A  10     -12.410  -2.887   6.021  1.00 24.95    -0.020 C 
ATOM      4  CD2 LEU A  10     -13.684  -2.486   6.685  1.00 26.38     0.009 C 
ATOM      5  CD1 LEU A  10     -12.444  -2.539   4.543  1.00 28.12     0.009 C 
ENDBRANCH   2   3
ENDBRANCH   1   2
END_RES LEU A  10
BEGIN_RES CYS A  12
REMARK  2 active torsions:
REMARK  status: ('A' for Active; 'I' for Inactive)
REMARK    3  A    between atoms: CA   and  CB  
REMARK    4  A    between atoms: CB   and  SG  
ROOT
ATOM      6  CA  CYS A  12      -8.555   0.470   8.750  1.00 23.16     0.185 C 
ENDROOT
BRANCH   6   7
ATOM      7  CB  CYS A  12      -9.828   0.763   9.555  1.00 20.43     0.105 C 
BRANCH   7   8
ATOM      8  SG  CYS A  12     -10.973   1.976   8.828  1.00 24.64    -0.180 SA
ATOM      9  H04 CYS A  12     -12.221   1.489   8.863  1.00 24.64     0.101 HD
ENDBRANCH   7   8
ENDBRANCH   6   7
END_RES CYS A  12
BEGIN_RES GLN A  14
REMARK  3 active torsions:
REMARK  status: ('A' for Active; 'I' for Inactive)
REMARK    5  A    between atoms: CA   and  CB  
REMARK    6  A    between atoms: CB   and  CG  
REMARK    7  A    between atoms: CG   and  CD  
REMARK       I    between atoms: CD   and  NE2 
ROOT
ATOM     10  CA  GLN A  14      -4.645   5.402  11.377  1.00 10.43     0.177 C 
ENDROOT
BRANCH  10  11
ATOM     11  CB  GLN A  14      -5.541   5.549  12.608  1.00 14.45     0.044 C 
BRANCH  11  12
ATOM     12  CG  GLN A  14      -6.615   6.603  12.467  1.00 13.74     0.105 C 
BRANCH  12  13
ATOM     13  CD  GLN A  14      -6.043   7.992  12.305  1.00 16.29     0.215 C 
ATOM     14  NE2 GLN A  14      -6.632   8.769  11.424  1.00  8.57    -0.370 N 
ATOM     15  H06 GLN A  14      -6.294   9.709  11.273  1.00  8.57     0.159 HD
ATOM     16  H07 GLN A  14      -7.423   8.427  10.897  1.00  8.57     0.159 HD
ATOM     17  OE1 GLN A  14      -5.085   8.359  12.967  1.00 23.55    -0.274 OA
ENDBRANCH  12  13
ENDBRANCH  11  12
ENDBRANCH  10  11
END_RES GLN A  14
BEGIN_RES SER A  16
REMARK  2 active torsions:
REMARK  status: ('A' for Active; 'I' for Inactive)
REMARK    8  A    between atoms: CA   and  CB  
REMARK    9  A    between atoms: CB   and  OG  
ROOT
ATOM     18  CA  SER A  16      -1.305  10.019  14.282  1.00  2.34     0.200 C 
ENDROOT
BRANCH  18  19
ATOM     19  CB  SER A  16      -2.242   9.935  15.479  1.00  3.12     0.199 C 
BRANCH  19  20
ATOM     20  OG  SER A  16      -3.464   9.323  15.106  1.00  1.00    -0.398 OA
ATOM     21  H04 SER A  16      -4.139   9.996  14.995  1.00  1.00     0.209 HD
ENDBRANCH  19  20
ENDBRANCH  18  19
END_RES SER A  16
BEGIN_RES LEU A  32
REMARK  2 active torsions:
REMARK  status: ('A' for Active; 'I' for Inactive)
REMARK   10  A    between atoms: CA   and  CB  
REMARK   11  A    between atoms: CB   and  CG  
ROOT
ATOM     22  CA  LEU A  32     -10.272  -4.106   1.587  1.00 16.16     0.177 C 
ENDROOT
BRANCH  22  23
ATOM     23  CB  LEU A  32     -11.613  -3.858   0.880  1.00 12.35     0.038 C 
BRANCH  23  24
ATOM     24  CG  LEU A  32     -12.546  -5.083   0.972  1.00  9.77    -0.020 C 
ATOM     25  CD1 LEU A  32     -13.022  -5.274   2.393  1.00  4.35     0.009 C 
ATOM     26  CD2 LEU A  32     -13.731  -4.925   0.056  1.00 10.60     0.009 C 
ENDBRANCH  23  24
ENDBRANCH  22  23
END_RES LEU A  32
BEGIN_RES HIS A  38
REMARK  2 active torsions:
REMARK  status: ('A' for Active; 'I' for Inactive)
REMARK   12  A    between atoms: CA   and  CB  
REMARK   13  A    between atoms: CB   and  CG  
ROOT
ATOM     27  CA  HIS A  38     -10.959   4.941   1.621  1.00 16.94     0.182 C 
ENDROOT
BRANCH  27  28
ATOM     28  CB  HIS A  38     -11.810   4.840   2.881  1.00 15.47     0.095 C 
BRANCH  28  29
ATOM     29  CG  HIS A  38     -12.985   3.926   2.744  1.00 18.62     0.053 A 
ATOM     30  CD2 HIS A  38     -14.143   4.065   2.055  1.00 15.06     0.116 A 
ATOM     31  NE2 HIS A  38     -14.864   2.914   2.246  1.00 18.12    -0.359 N 
ATOM     32  CE1 HIS A  38     -14.178   2.100   3.024  1.00 14.78     0.207 A 
ATOM     33  H06 HIS A  38     -15.775   2.722   1.855  1.00 18.12     0.166 HD
ATOM     34  ND1 HIS A  38     -13.040   2.686   3.340  1.00 16.58    -0.247 NA
ENDBRANCH  28  29
ENDBRANCH  27  28
END_RES HIS A  38
BEGIN_RES TRP A  63
REMARK  2 active torsions:
REMARK  status: ('A' for Active; 'I' for Inactive)
REMARK   14  A    between atoms: CA   and  CB  
REMARK   15  A    between atoms: CB   and  CG  
ROOT
ATOM     35  CA  TRP A  63     -22.437   6.257   6.543  1.00 27.04     0.181 C 
ENDROOT
BRANCH  35  36
ATOM     36  CB  TRP A  63     -22.360   6.642   5.068  1.00 31.37     0.075 C 
BRANCH  36  37
ATOM     37  CG  TRP A  63     -20.955   6.865   4.548  1.00 34.37    -0.028 A 
ATOM     38  CD2 TRP A  63     -19.875   5.922   4.537  1.00 33.79    -0.002 A 
ATOM     39  CE3 TRP A  63     -19.720   4.615   5.003  1.00 32.99     0.014 A 
ATOM     40  CE2 TRP A  63     -18.783   6.547   3.895  1.00 35.84     0.042 A 
ATOM     41  CZ3 TRP A  63     -18.500   3.980   4.818  1.00 32.93     0.001 A 
ATOM     42  CH2 TRP A  63     -17.433   4.628   4.177  1.00 39.24     0.002 A 
ATOM     43  CZ2 TRP A  63     -17.555   5.909   3.708  1.00 37.99     0.030 A 
ATOM     44  NE1 TRP A  63     -19.185   7.804   3.538  1.00 37.98    -0.365 N 
ATOM     45  H06 TRP A  63     -18.617   8.489   3.060  1.00 37.98     0.165 HD
ATOM     46  CD1 TRP A  63     -20.488   7.985   3.936  1.00 38.16     0.096 A 
ENDBRANCH  36  37
ENDBRANCH  35  36
END_RES TRP A  63
BEGIN_RES LEU A  66
REMARK  2 active torsions:
REMARK  status: ('A' for Active; 'I' for Inactive)
REMARK   16  A    between atoms: CA   and  CB  
REMARK   17  A    between atoms: CB   and  CG  
ROOT
ATOM     47  CA  LEU A  66     -20.004   6.489  11.120  1.00 10.90     0.177 C 
ENDROOT
BRANCH  47  48
ATOM     48  CB  LEU A  66     -19.626   5.453  10.069  1.00 13.57     0.038 C 
BRANCH  48  49
ATOM     49  CG  LEU A  66     -19.495   4.003  10.532  1.00  8.73    -0.020 C 
ATOM     50  CD1 LEU A  66     -19.013   3.942  11.958  1.00 14.23     0.009 C 
ATOM     51  CD2 LEU A  66     -20.843   3.339  10.413  1.00  1.92     0.009 C 
ENDBRANCH  48  49
ENDBRANCH  47  48
END_RES LEU A  66
BEGIN_RES PHE A  70
REMARK  2 active torsions:
REMARK  status: ('A' for Active; 'I' for Inactive)
REMARK   18  A    between atoms: CA   and  CB  
REMARK   19  A    between atoms: CB   and  CG  
ROOT
ATOM     52  CA  PHE A  70     -14.974   9.434  13.165  1.00  8.78     0.180 C 
ENDROOT
BRANCH  52  53
ATOM     53  CB  PHE A  70     -14.707   9.132  11.681  1.00  6.33     0.073 C 
BRANCH  53  54
ATOM     54  CG  PHE A  70     -13.975   7.837  11.456  1.00  3.42    -0.056 A 
ATOM     55  CD1 PHE A  70     -13.474   7.104  12.521  1.00 13.88     0.007 A 
ATOM     56  CE1 PHE A  70     -12.750   5.919  12.302  1.00 12.71     0.001 A 
ATOM     57  CZ  PHE A  70     -12.528   5.463  11.002  1.00  4.21     0.000 A 
ATOM     58  CE2 PHE A  70     -13.025   6.183   9.932  1.00  2.83     0.001 A 
ATOM     59  CD2 PHE A  70     -13.747   7.367  10.162  1.00  1.00     0.007 A 
ENDBRANCH  53  54
ENDBRANCH  52  53
END_RES PHE A  70
BEGIN_RES TYR A  73
REMARK  3 active torsions:
REMARK  status: ('A' for Active; 'I' for Inactive)
REMARK   20  A    between atoms: CA   and  CB  
REMARK   21  A    between atoms: CB   and  CG  
REMARK   22  A    between atoms: CZ   and  OH  
ROOT
ATOM     60  CA  TYR A  73     -13.212  10.166  17.260  1.00 12.17     0.180 C 
ENDROOT
BRANCH  60  61
ATOM     61  CB  TYR A  73     -13.301   8.846  16.517  1.00 12.84     0.073 C 
BRANCH  61  62
ATOM     62  CG  TYR A  73     -13.375   7.669  17.425  1.00 15.89    -0.056 A 
ATOM     63  CD1 TYR A  73     -13.577   6.400  16.930  1.00 16.00     0.010 A 
ATOM     64  CE1 TYR A  73     -13.677   5.300  17.781  1.00 13.55     0.037 A 
ATOM     65  CZ  TYR A  73     -13.573   5.488  19.145  1.00 18.13     0.065 A 
ATOM     66  CE2 TYR A  73     -13.371   6.745  19.665  1.00 15.89     0.037 A 
ATOM     67  CD2 TYR A  73     -13.272   7.829  18.803  1.00 21.86     0.010 A 
BRANCH  65  68
ATOM     68  OH  TYR A  73     -13.663   4.418  20.001  1.00 12.12    -0.361 OA
ATOM     69  H08 TYR A  73     -13.580   4.725  20.907  1.00 12.12     0.217 HD
ENDBRANCH  65  68
ENDBRANCH  61  62
ENDBRANCH  60  61
END_RES TYR A  73
BEGIN_RES PHE A  77
REMARK  2 active torsions:
REMARK  status: ('A' for Active; 'I' for Inactive)
REMARK   23  A    between atoms: CA   and  CB  
REMARK   24  A    between atoms: CB   and  CG  
ROOT
ATOM     70  CA  PHE A  77      -8.400  10.581  20.110  1.00 17.17     0.180 C 
ENDROOT
BRANCH  70  71
ATOM     71  CB  PHE A  77      -8.228   9.750  18.851  1.00 10.44     0.073 C 
BRANCH  71  72
ATOM     72  CG  PHE A  77      -8.819   8.378  18.948  1.00  6.07    -0.056 A 
ATOM     73  CD2 PHE A  77      -9.321   7.752  17.831  1.00  9.61     0.007 A 
ATOM     74  CE2 PHE A  77      -9.870   6.478  17.911  1.00  1.00     0.001 A 
ATOM     75  CZ  PHE A  77      -9.914   5.820  19.129  1.00  1.92     0.000 A 
ATOM     76  CE1 PHE A  77      -9.414   6.432  20.256  1.00  9.25     0.001 A 
ATOM     77  CD1 PHE A  77      -8.868   7.712  20.162  1.00  9.63     0.007 A 
ENDBRANCH  71  72
ENDBRANCH  70  71
END_RES PHE A  77
BEGIN_RES LEU A  96
REMARK  2 active torsions:
REMARK  status: ('A' for Active; 'I' for Inactive)
REMARK   25  A    between atoms: CA   and  CB  
REMARK   26  A    between atoms: CB   and  CG  
ROOT
ATOM     78  CA  LEU A  96       0.717   6.481  17.359  1.00 16.08     0.177 C 
ENDROOT
BRANCH  78  79
ATOM     79  CB  LEU A  96      -0.370   7.101  18.230  1.00 18.83     0.038 C 
BRANCH  79  80
ATOM     80  CG  LEU A  96      -0.150   6.935  19.734  1.00 19.03    -0.020 C 
ATOM     81  CD1 LEU A  96       0.561   8.159  20.261  1.00 28.17     0.009 C 
ATOM     82  CD2 LEU A  96      -1.475   6.806  20.449  1.00 22.01     0.009 C 
ENDBRANCH  79  80
ENDBRANCH  78  79
END_RES LEU A  96
BEGIN_RES VAL A  98
REMARK  1 active torsions:
REMARK  status: ('A' for Active; 'I' for Inactive)
REMARK   27  A    between atoms: CA   and  CB  
ROOT
ATOM     83  CA  VAL A  98      -3.928   2.082  14.897  1.00 19.83     0.180 C 
ENDROOT
BRANCH  83  84
ATOM     84  CB  VAL A  98      -5.203   2.807  15.281  1.00 17.87     0.009 C 
ATOM     85  CG2 VAL A  98      -4.917   4.268  15.511  1.00 29.90     0.012 C 
ATOM     86  CG1 VAL A  98      -5.792   2.173  16.523  1.00 14.79     0.012 C 
ENDBRANCH  83  84
END_RES VAL A  98
BEGIN_RES ASN A 112
REMARK  2 active torsions:
REMARK  status: ('A' for Active; 'I' for Inactive)
REMARK   28  A    between atoms: CA   and  CB  
REMARK   29  A    between atoms: CB   and  CG  
REMARK       I    between atoms: CG   and  ND2 
ROOT
ATOM     87  CA  ASN A 112     -11.790  -8.793  14.069  1.00 37.70     0.185 C 
ENDROOT
BRANCH  87  88
ATOM     88  CB  ASN A 112     -12.992  -7.945  14.465  1.00 26.24     0.137 C 
BRANCH  88  89
ATOM     89  CG  ASN A 112     -13.947  -8.666  15.389  1.00 21.77     0.217 C 
ATOM     90  ND2 ASN A 112     -13.660  -8.613  16.690  1.00  9.31    -0.370 N 
ATOM     91  H04 ASN A 112     -14.259  -9.076  17.358  1.00  9.31     0.159 HD
ATOM     92  H05 ASN A 112     -12.844  -8.109  17.006  1.00  9.31     0.159 HD
ATOM     93  OD1 ASN A 112     -14.930  -9.270  14.943  1.00 21.61    -0.274 OA
ENDBRANCH  88  89
ENDBRANCH  87  88
END_RES ASN A 112
BEGIN_RES PHE A 114
REMARK  2 active torsions:
REMARK  status: ('A' for Active; 'I' for Inactive)
REMARK   30  A    between atoms: CA   and  CB  
REMARK   31  A    between atoms: CB   and  CG  
ROOT
ATOM     94  CA  PHE A 114      -7.754  -3.619  17.012  1.00 26.06     0.180 C 
ENDROOT
BRANCH  94  95
ATOM     95  CB  PHE A 114      -8.890  -3.080  17.867  1.00 19.95     0.073 C 
BRANCH  95  96
ATOM     96  CG  PHE A 114      -9.226  -1.653  17.575  1.00 17.65    -0.056 A 
ATOM     97  CD1 PHE A 114      -8.223  -0.694  17.463  1.00 13.01     0.007 A 
ATOM     98  CE1 PHE A 114      -8.536   0.637  17.220  1.00  6.74     0.001 A 
ATOM     99  CZ  PHE A 114      -9.865   1.028  17.083  1.00  6.27     0.000 A 
ATOM    100  CE2 PHE A 114     -10.871   0.081  17.192  1.00 17.36     0.001 A 
ATOM    101  CD2 PHE A 114     -10.549  -1.258  17.438  1.00 18.39     0.007 A 
ENDBRANCH  95  96
ENDBRANCH  94  95
END_RES PHE A 114
BEGIN_RES VAL A 116
REMARK  1 active torsions:
REMARK  status: ('A' for Active; 'I' for Inactive)
REMARK   32  A    between atoms: CA   and  CB  
ROOT
ATOM    102  CA  VAL A 116      -2.467   0.283  18.565  1.00 13.48     0.180 C 
ENDROOT
BRANCH 102 103
ATOM    103  CB  VAL A 116      -3.101   1.238  19.599  1.00 20.86     0.009 C 
ATOM    104  CG1 VAL A 116      -3.057   2.672  19.065  1.00 25.01     0.012 C 
ATOM    105  CG2 VAL A 116      -4.511   0.811  19.933  1.00 25.34     0.012 C 
ENDBRANCH 102 103
END_RES VAL A 116
BEGIN_RES ILE A 123
REMARK  2 active torsions:
REMARK  status: ('A' for Active; 'I' for Inactive)
REMARK   33  A    between atoms: CA   and  CB  
REMARK   34  A    between atoms: CB   and  CG1 
ROOT
ATOM    106  CA  ILE A 123       1.557  -1.626  23.222  1.00 15.07     0.180 C 
ENDROOT
BRANCH 106 107
ATOM    107  CB  ILE A 123       1.697  -0.112  23.461  1.00 14.41     0.013 C 
ATOM    108  CG2 ILE A 123       3.083   0.201  23.997  1.00 18.35     0.012 C 
BRANCH 107 109
ATOM    109  CG1 ILE A 123       1.447   0.655  22.165  1.00 15.23     0.002 C 
ATOM    110  CD1 ILE A 123       0.172   1.463  22.175  1.00 14.67     0.005 C 
ENDBRANCH 107 109
ENDBRANCH 106 107
END_RES ILE A 123
BEGIN_RES LEU A 124
REMARK  2 active torsions:
REMARK  status: ('A' for Active; 'I' for Inactive)
REMARK   35  A    between atoms: CA   and  CB  
REMARK   36  A    between atoms: CB   and  CG  
ROOT
ATOM    111  CA  LEU A 124      -2.057  -2.686  23.524  1.00 11.86     0.177 C 
ENDROOT
BRANCH 111 112
ATOM    112  CB  LEU A 124      -2.698  -1.652  24.429  1.00 14.60     0.038 C 
BRANCH 112 113
ATOM    113  CG  LEU A 124      -2.637  -0.254  23.832  1.00 16.19    -0.020 C 
ATOM    114  CD1 LEU A 124      -4.065   0.199  23.470  1.00 22.07     0.009 C 
ATOM    115  CD2 LEU A 124      -1.982   0.684  24.815  1.00  9.12     0.009 C 
ENDBRANCH 112 113
ENDBRANCH 111 112
END_RES LEU A 124
BEGIN_RES PHE A 126
REMARK  2 active torsions:
REMARK  status: ('A' for Active; 'I' for Inactive)
REMARK   37  A    between atoms: CA   and  CB  
REMARK   38  A    between atoms: CB   and  CG  
ROOT
ATOM    116  CA  PHE A 126      -8.784  -4.792  22.233  1.00 23.15     0.180 C 
ENDROOT
BRANCH 116 117
ATOM    117  CB  PHE A 126      -9.823  -4.011  21.461  1.00 20.65     0.073 C 
BRANCH 117 118
ATOM    118  CG  PHE A 126     -10.956  -3.553  22.294  1.00 23.65    -0.056 A 
ATOM    119  CD2 PHE A 126     -12.212  -4.115  22.148  1.00 36.63     0.007 A 
ATOM    120  CE2 PHE A 126     -13.284  -3.681  22.939  1.00 36.27     0.001 A 
ATOM    121  CZ  PHE A 126     -13.090  -2.679  23.878  1.00 18.06     0.000 A 
ATOM    122  CE1 PHE A 126     -11.837  -2.118  24.029  1.00  5.50     0.001 A 
ATOM    123  CD1 PHE A 126     -10.775  -2.558  23.239  1.00 15.29     0.007 A 
ENDBRANCH 117 118
ENDBRANCH 116 117
END_RES PHE A 126
BEGIN_RES TRP A 131
REMARK  2 active torsions:
REMARK  status: ('A' for Active; 'I' for Inactive)
REMARK   39  A    between atoms: CA   and  CB  
REMARK   40  A    between atoms: CB   and  CG  
ROOT
ATOM    124  CA  TRP A 131      -8.096  -3.335  26.542  1.00 14.52     0.181 C 
ENDROOT
BRANCH 124 125
ATOM    125  CB  TRP A 131      -7.651  -1.877  26.607  1.00 13.06     0.075 C 
BRANCH 125 126
ATOM    126  CG  TRP A 131      -8.047  -1.052  25.402  1.00 16.97    -0.028 A 
ATOM    127  CD2 TRP A 131      -9.132  -0.124  25.324  1.00 11.34    -0.002 A 
ATOM    128  CE2 TRP A 131      -9.131   0.420  24.025  1.00  5.87     0.042 A 
ATOM    129  CE3 TRP A 131     -10.108   0.298  26.233  1.00  3.80     0.014 A 
ATOM    130  CZ2 TRP A 131     -10.067   1.369  23.612  1.00  1.35     0.030 A 
ATOM    131  NE1 TRP A 131      -8.093  -0.151  23.341  1.00 13.90    -0.365 N 
ATOM    132  CH2 TRP A 131     -11.013   1.767  24.525  1.00  1.00     0.002 A 
ATOM    133  CZ3 TRP A 131     -11.040   1.237  25.829  1.00  1.00     0.001 A 
ATOM    134  CD1 TRP A 131      -7.446  -1.034  24.173  1.00 17.22     0.096 A 
ATOM    135  H07 TRP A 131      -7.843   0.043  22.382  1.00 13.90     0.165 HD
ENDBRANCH 125 126
ENDBRANCH 124 125
END_RES TRP A 131
BEGIN_RES LEU A 148
REMARK  2 active torsions:
REMARK  status: ('A' for Active; 'I' for Inactive)
REMARK   41  A    between atoms: CA   and  CB  
REMARK   42  A    between atoms: CB   and  CG  
ROOT
ATOM    136  CA  LEU A 148      -9.018   3.259  29.295  1.00 16.99     0.177 C 
ENDROOT
BRANCH 136 137
ATOM    137  CB  LEU A 148      -8.166   2.574  28.236  1.00  6.39     0.038 C 
BRANCH 137 138
ATOM    138  CG  LEU A 148      -8.007   3.172  26.853  1.00  1.00    -0.020 C 
ATOM    139  CD2 LEU A 148      -6.806   2.587  26.168  1.00  1.00     0.009 C 
ATOM    140  CD1 LEU A 148      -7.859   4.675  26.999  1.00  2.71     0.009 C 
ENDBRANCH 137 138
ENDBRANCH 136 137
END_RES LEU A 148
BEGIN_RES THR A 154
REMARK  2 active torsions:
REMARK  status: ('A' for Active; 'I' for Inactive)
REMARK   43  A    between atoms: CA   and  CB  
REMARK   44  A    between atoms: CB   and  OG1 
ROOT
ATOM    141  CA  THR A 154     -15.990   3.959  24.426  1.00 20.45     0.205 C 
ENDROOT
BRANCH 141 142
ATOM    142  CB  THR A 154     -14.777   4.829  24.694  1.00 16.79     0.146 C 
ATOM    143  CG2 THR A 154     -13.654   4.469  23.741  1.00 20.24     0.042 C 
BRANCH 142 144
ATOM    144  OG1 THR A 154     -15.135   6.201  24.489  1.00 18.84    -0.393 OA
ATOM    145  H06 THR A 154     -15.209   6.377  23.549  1.00 18.84     0.210 HD
ENDBRANCH 142 144
ENDBRANCH 141 142
END_RES THR A 154
BEGIN_RES VAL A 158
REMARK  1 active torsions:
REMARK  status: ('A' for Active; 'I' for Inactive)
REMARK   45  A    between atoms: CA   and  CB  
ROOT
ATOM    146  CA  VAL A 158     -15.487  -0.189  19.892  1.00 15.49     0.180 C 
ENDROOT
BRANCH 146 147
ATOM    147  CB  VAL A 158     -14.291  -0.273  20.822  1.00  6.52     0.009 C 
ATOM    148  CG1 VAL A 158     -13.243  -1.210  20.269  1.00  1.00     0.012 C 
ATOM    149  CG2 VAL A 158     -13.728   1.102  21.005  1.00  5.99     0.012 C 
ENDBRANCH 146 147
END_RES VAL A 158
BEGIN_RES LEU A 161
REMARK  2 active torsions:
REMARK  status: ('A' for Active; 'I' for Inactive)
REMARK   46  A    between atoms: CA   and  CB  
REMARK   47  A    between atoms: CB   and  CG  
ROOT
ATOM    150  CA  LEU A 161     -18.031  -1.858  15.935  1.00 13.31     0.177 C 
ENDROOT
BRANCH 150 151
ATOM    151  CB  LEU A 161     -17.046  -0.706  16.001  1.00 14.13     0.038 C 
BRANCH 151 152
ATOM    152  CG  LEU A 161     -17.448   0.569  15.270  1.00 19.39    -0.020 C 
ATOM    153  CD2 LEU A 161     -18.855   0.966  15.648  1.00 27.75     0.009 C 
ATOM    154  CD1 LEU A 161     -17.362   0.327  13.787  1.00 18.59     0.009 C 
ENDBRANCH 151 152
ENDBRANCH 150 151
END_RES LEU A 161
BEGIN_RES GLN A 168
REMARK  3 active torsions:
REMARK  status: ('A' for Active; 'I' for Inactive)
REMARK   48  A    between atoms: CA   and  CB  
REMARK   49  A    between atoms: CB   and  CG  
REMARK   50  A    between atoms: CG   and  CD  
REMARK       I    between atoms: CD   and  NE2 
ROOT
ATOM    155  CA  GLN A 168     -22.035  -6.020   8.155  1.00 30.94     0.177 C 
ENDROOT
BRANCH 155 156
ATOM    156  CB  GLN A 168     -23.054  -5.218   8.946  1.00 41.76     0.044 C 
BRANCH 156 157
ATOM    157  CG  GLN A 168     -24.423  -5.839   9.011  1.00 61.20     0.105 C 
BRANCH 157 158
ATOM    158  CD  GLN A 168     -24.685  -6.491  10.354  1.00 75.49     0.215 C 
ATOM    159  NE2 GLN A 168     -23.977  -6.025  11.384  1.00 85.00    -0.370 N 
ATOM    160  H06 GLN A 168     -24.104  -6.420  12.305  1.00 85.00     0.159 HD
ATOM    161  H07 GLN A 168     -23.312  -5.277  11.243  1.00 85.00     0.159 HD
ATOM    162  OE1 GLN A 168     -25.510  -7.409  10.470  1.00 73.64    -0.274 OA
ENDBRANCH 157 158
ENDBRANCH 156 157
ENDBRANCH 155 156
END_RES GLN A 168
ENDMDL
MODEL 2
REMARK VINA RESULT:      -6.5      1.909      7.454
REMARK  Name = human_CD1d_LDAO_pred.rank_0
REMARK  11 active torsions:
REMARK  status: ('A' for Active; 'I' for Inactive)
REMARK    1  A    between atoms: N_2  and  C_14
REMARK    2  A    between atoms: C_4  and  C_5
REMARK    3  A    between atoms: C_5  and  C_6
REMARK    4  A    between atoms: C_6  and  C_7
REMARK    5  A    between atoms: C_7  and  C_8
REMARK    6  A    between atoms: C_8  and  C_9
REMARK    7  A    between atoms: C_9  and  C_10
REMARK    8  A    between atoms: C_10  and  C_11
REMARK    9  A    between atoms: C_11  and  C_12
REMARK   10  A    between atoms: C_12  and  C_13
REMARK   11  A    between atoms: C_13  and  C_14
REMARK                            x       y       z     vdW  Elec       q    Type
REMARK                         _______ _______ _______ _____ _____    ______ ____
ROOT
ATOM      1  C   UNL     1      -2.003   4.623  22.645  0.00  0.00    +0.000 C 
ENDROOT
BRANCH   1   2
ATOM      2  C   UNL     1      -2.237   4.294  24.142  0.00  0.00    +0.000 C 
BRANCH   2   3
ATOM      3  C   UNL     1      -1.018   4.640  25.046  0.00  0.00    +0.000 C 
BRANCH   3   4
ATOM      4  C   UNL     1       0.258   4.814  24.227  0.00  0.00    +0.000 C 
BRANCH   4   5
ATOM      5  C   UNL     1       0.962   6.144  24.543  0.00  0.00    +0.000 C 
BRANCH   5   6
ATOM      6  C   UNL     1       0.348   7.305  23.744  0.00  0.00    +0.000 C 
BRANCH   6   8
ATOM      7  C   UNL     1       1.505   9.431  24.417  0.00  0.00    +0.000 C 
ATOM      8  C   UNL     1       0.256   8.567  24.569  0.00  0.00    +0.000 C 
ENDBRANCH   6   8
ENDBRANCH   5   6
ENDBRANCH   4   5
ENDBRANCH   3   4
ENDBRANCH   2   3
ENDBRANCH   1   2
BRANCH   1   9
ATOM      9  C   UNL     1      -2.721   5.916  22.215  0.00  0.00    +0.000 C 
BRANCH   9  10
ATOM     10  C   UNL     1      -3.919   5.614  21.307  0.00  0.00    +0.000 C 
BRANCH  10  11
ATOM     11  C   UNL     1      -3.788   6.270  19.917  0.00  0.00    +0.000 C 
BRANCH  11  12
ATOM     12  C   UNL     1      -5.111   6.872  19.439  0.00  0.00    +0.000 C 
BRANCH  12  13
ATOM     13  N   UNL     1      -4.935   7.453  18.085  0.00  0.00    +0.000 N 
ATOM     14  O   UNL     1      -5.977   7.162  17.308  0.00  0.00    +0.000 OA
ATOM     15  C   UNL     1      -4.848   8.918  18.231  0.00  0.00    +0.000 C 
ATOM     16  C   UNL     1      -3.711   6.955  17.486  0.00  0.00    +0.000 C 
ENDBRANCH  12  13
ENDBRANCH  11  12
ENDBRANCH  10  11
ENDBRANCH   9  10
ENDBRANCH   1   9
TORSDOF 11
BEGIN_RES LEU A  10
REMARK  2 active torsions:
REMARK  status: ('A' for Active; 'I' for Inactive)
REMARK    1  A    between atoms: CA   and  CB  
REMARK    2  A    between atoms: CB   and  CG  
ROOT
ATOM      1  CA  LEU A  10     -10.775  -4.871   5.898  1.00 25.14     0.177 C 
ENDROOT
BRANCH   1   2
ATOM      2  CB  LEU A  10     -12.191  -4.387   6.226  1.00 17.87     0.038 C 
BRANCH   2   3
ATOM      3  CG  LEU A  10     -12.665  -3.200   5.385  1.00 24.95    -0.020 C 
ATOM      4  CD2 LEU A  10     -13.487  -2.296   6.240  1.00 26.38     0.009 C 
ATOM      5  CD1 LEU A  10     -13.463  -3.670   4.181  1.00 28.12     0.009 C 
ENDBRANCH   2   3
ENDBRANCH   1   2
END_RES LEU A  10
BEGIN_RES CYS A  12
REMARK  2 active torsions:
REMARK  status: ('A' for Active; 'I' for Inactive)
REMARK    3  A    between atoms: CA   and  CB  
REMARK    4  A    between atoms: CB   and  SG  
ROOT
ATOM      6  CA  CYS A  12      -8.555   0.470   8.750  1.00 23.16     0.185 C 
ENDROOT
BRANCH   6   7
ATOM      7  CB  CYS A  12      -9.828   0.763   9.555  1.00 20.43     0.105 C 
BRANCH   7   8
ATOM      8  SG  CYS A  12     -10.951   2.008   8.850  1.00 24.64    -0.180 SA
ATOM      9  H04 CYS A  12     -10.258   3.113   8.543  1.00 24.64     0.101 HD
ENDBRANCH   7   8
ENDBRANCH   6   7
END_RES CYS A  12
BEGIN_RES GLN A  14
REMARK  3 active torsions:
REMARK  status: ('A' for Active; 'I' for Inactive)
REMARK    5  A    between atoms: CA   and  CB  
REMARK    6  A    between atoms: CB   and  CG  
REMARK    7  A    between atoms: CG   and  CD  
REMARK       I    between atoms: CD   and  NE2 
ROOT
ATOM     10  CA  GLN A  14      -4.645   5.402  11.377  1.00 10.43     0.177 C 
ENDROOT
BRANCH  10  11
ATOM     11  CB  GLN A  14      -5.541   5.549  12.608  1.00 14.45     0.044 C 
BRANCH  11  12
ATOM     12  CG  GLN A  14      -6.471   6.739  12.556  1.00 13.74     0.105 C 
BRANCH  12  13
ATOM     13  CD  GLN A  14      -5.862   7.975  13.173  1.00 16.29     0.215 C 
ATOM     14  NE2 GLN A  14      -6.151   8.203  14.436  1.00  8.57    -0.370 N 
ATOM     15  H06 GLN A  14      -5.771   9.014  14.902  1.00  8.57     0.159 HD
ATOM     16  H07 GLN A  14      -6.753   7.567  14.939  1.00  8.57     0.159 HD
ATOM     17  OE1 GLN A  14      -5.139   8.713  12.523  1.00 23.55    -0.274 OA
ENDBRANCH  12  13
ENDBRANCH  11  12
ENDBRANCH  10  11
END_RES GLN A  14
BEGIN_RES SER A  16
REMARK  2 active torsions:
REMARK  status: ('A' for Active; 'I' for Inactive)
REMARK    8  A    between atoms: CA   and  CB  
REMARK    9  A    between atoms: CB   and  OG  
ROOT
ATOM     18  CA  SER A  16      -1.305  10.019  14.282  1.00  2.34     0.200 C 
ENDROOT
BRANCH  18  19
ATOM     19  CB  SER A  16      -2.242   9.935  15.479  1.00  3.12     0.199 C 
BRANCH  19  20
ATOM     20  OG  SER A  16      -3.502   9.423  15.083  1.00  1.00    -0.398 OA
ATOM     21  H04 SER A  16      -4.161   9.645  15.746  1.00  1.00     0.209 HD
ENDBRANCH  19  20
ENDBRANCH  18  19
END_RES SER A  16
BEGIN_RES LEU A  32
REMARK  2 active torsions:
REMARK  status: ('A' for Active; 'I' for Inactive)
REMARK   10  A    between atoms: CA   and  CB  
REMARK   11  A    between atoms: CB   and  CG  
ROOT
ATOM     22  CA  LEU A  32     -10.272  -4.106   1.587  1.00 16.16     0.177 C 
ENDROOT
BRANCH  22  23
ATOM     23  CB  LEU A  32     -11.613  -3.858   0.880  1.00 12.35     0.038 C 
BRANCH  23  24
ATOM     24  CG  LEU A  32     -12.587  -5.040   1.065  1.00  9.77    -0.020 C 
ATOM     25  CD1 LEU A  32     -14.001  -4.607   0.760  1.00  4.35     0.009 C 
ATOM     26  CD2 LEU A  32     -12.205  -6.194   0.176  1.00 10.60     0.009 C 
ENDBRANCH  23  24
ENDBRANCH  22  23
END_RES LEU A  32
BEGIN_RES HIS A  38
REMARK  2 active torsions:
REMARK  status: ('A' for Active; 'I' for Inactive)
REMARK   12  A    between atoms: CA   and  CB  
REMARK   13  A    between atoms: CB   and  CG  
ROOT
ATOM     27  CA  HIS A  38     -10.959   4.941   1.621  1.00 16.94     0.182 C 
ENDROOT
BRANCH  27  28
ATOM     28  CB  HIS A  38     -11.810   4.840   2.881  1.00 15.47     0.095 C 
BRANCH  28  29
ATOM     29  CG  HIS A  38     -13.000   3.948   2.736  1.00 18.62     0.053 A 
ATOM     30  CD2 HIS A  38     -14.164   4.121   2.065  1.00 15.06     0.116 A 
ATOM     31  NE2 HIS A  38     -14.900   2.977   2.236  1.00 18.12    -0.359 N 
ATOM     32  CE1 HIS A  38     -14.217   2.132   2.984  1.00 14.78     0.207 A 
ATOM     33  H06 HIS A  38     -15.819   2.808   1.851  1.00 18.12     0.166 HD
ATOM     34  ND1 HIS A  38     -13.067   2.693   3.300  1.00 16.58    -0.247 NA
ENDBRANCH  28  29
ENDBRANCH  27  28
END_RES HIS A  38
BEGIN_RES TRP A  63
REMARK  2 active torsions:
REMARK  status: ('A' for Active; 'I' for Inactive)
REMARK   14  A    between atoms: CA   and  CB  
REMARK   15  A    between atoms: CB   and  CG  
ROOT
ATOM     35  CA  TRP A  63     -22.437   6.257   6.543  1.00 27.04     0.181 C 
ENDROOT
BRANCH  35  36
ATOM     36  CB  TRP A  63     -22.360   6.642   5.068  1.00 31.37     0.075 C 
BRANCH  36  37
ATOM     37  CG  TRP A  63     -20.953   6.761   4.521  1.00 34.37    -0.028 A 
ATOM     38  CD2 TRP A  63     -19.893   5.802   4.639  1.00 33.79    -0.002 A 
ATOM     39  CE3 TRP A  63     -19.764   4.568   5.280  1.00 32.99     0.014 A 
ATOM     40  CE2 TRP A  63     -18.790   6.308   3.916  1.00 35.84     0.042 A 
ATOM     41  CZ3 TRP A  63     -18.559   3.887   5.182  1.00 32.93     0.001 A 
ATOM     42  CH2 TRP A  63     -17.481   4.418   4.457  1.00 39.24     0.002 A 
ATOM     43  CZ2 TRP A  63     -17.578   5.624   3.817  1.00 37.99     0.030 A 
ATOM     44  NE1 TRP A  63     -19.167   7.514   3.390  1.00 37.98    -0.365 N 
ATOM     45  H06 TRP A  63     -18.586   8.114   2.822  1.00 37.98     0.165 HD
ATOM     46  CD1 TRP A  63     -20.464   7.776   3.761  1.00 38.16     0.096 A 
ENDBRANCH  36  37
ENDBRANCH  35  36
END_RES TRP A  63
BEGIN_RES LEU A  66
REMARK  2 active torsions:
REMARK  status: ('A' for Active; 'I' for Inactive)
REMARK   16  A    between atoms: CA   and  CB  
REMARK   17  A    between atoms: CB   and  CG  
ROOT
ATOM     47  CA  LEU A  66     -20.004   6.489  11.120  1.00 10.90     0.177 C 
ENDROOT
BRANCH  47  48
ATOM     48  CB  LEU A  66     -19.626   5.453  10.069  1.00 13.57     0.038 C 
BRANCH  48  49
ATOM     49  CG  LEU A  66     -19.784   3.981  10.449  1.00  8.73    -0.020 C 
ATOM     50  CD1 LEU A  66     -19.404   3.091   9.295  1.00 14.23     0.009 C 
ATOM     51  CD2 LEU A  66     -18.899   3.696  11.635  1.00  1.92     0.009 C 
ENDBRANCH  48  49
ENDBRANCH  47  48
END_RES LEU A  66
BEGIN_RES PHE A  70
REMARK  2 active torsions:
REMARK  status: ('A' for Active; 'I' for Inactive)
REMARK   18  A    between atoms: CA   and  CB  
REMARK   19  A    between atoms: CB   and  CG  
ROOT
ATOM     52  CA  PHE A  70     -14.974   9.434  13.165  1.00  8.78     0.180 C 
ENDROOT
BRANCH  52  53
ATOM     53  CB  PHE A  70     -14.707   9.132  11.681  1.00  6.33     0.073 C 
BRANCH  53  54
ATOM     54  CG  PHE A  70     -13.936   7.859  11.459  1.00  3.42    -0.056 A 
ATOM     55  CD1 PHE A  70     -13.704   7.377  10.179  1.00 13.88     0.007 A 
ATOM     56  CE1 PHE A  70     -13.024   6.163   9.981  1.00 12.71     0.001 A 
ATOM     57  CZ  PHE A  70     -12.571   5.425  11.075  1.00  4.21     0.000 A 
ATOM     58  CE2 PHE A  70     -12.795   5.896  12.355  1.00  2.83     0.001 A 
ATOM     59  CD2 PHE A  70     -13.475   7.111  12.543  1.00  1.00     0.007 A 
ENDBRANCH  53  54
ENDBRANCH  52  53
END_RES PHE A  70
BEGIN_RES TYR A  73
REMARK  3 active torsions:
REMARK  status: ('A' for Active; 'I' for Inactive)
REMARK   20  A    between atoms: CA   and  CB  
REMARK   21  A    between atoms: CB   and  CG  
REMARK   22  A    between atoms: CZ   and  OH  
ROOT
ATOM     60  CA  TYR A  73     -13.212  10.166  17.260  1.00 12.17     0.180 C 
ENDROOT
BRANCH  60  61
ATOM     61  CB  TYR A  73     -13.301   8.846  16.517  1.00 12.84     0.073 C 
BRANCH  61  62
ATOM     62  CG  TYR A  73     -13.335   7.667  17.425  1.00 15.89    -0.056 A 
ATOM     63  CD1 TYR A  73     -13.483   6.391  16.928  1.00 16.00     0.010 A 
ATOM     64  CE1 TYR A  73     -13.546   5.287  17.778  1.00 13.55     0.037 A 
ATOM     65  CZ  TYR A  73     -13.458   5.479  19.143  1.00 18.13     0.065 A 
ATOM     66  CE2 TYR A  73     -13.309   6.742  19.665  1.00 15.89     0.037 A 
ATOM     67  CD2 TYR A  73     -13.247   7.830  18.803  1.00 21.86     0.010 A 
BRANCH  65  68
ATOM     68  OH  TYR A  73     -13.512   4.406  19.998  1.00 12.12    -0.361 OA
ATOM     69  H08 TYR A  73     -13.890   3.650  19.542  1.00 12.12     0.217 HD
ENDBRANCH  65  68
ENDBRANCH  61  62
ENDBRANCH  60  61
END_RES TYR A  73
BEGIN_RES PHE A  77
REMARK  2 active torsions:
REMARK  status: ('A' for Active; 'I' for Inactive)
REMARK   23  A    between atoms: CA   and  CB  
REMARK   24  A    between atoms: CB   and  CG  
ROOT
ATOM     70  CA  PHE A  77      -8.400  10.581  20.110  1.00 17.17     0.180 C 
ENDROOT
BRANCH  70  71
ATOM     71  CB  PHE A  77      -8.228   9.750  18.851  1.00 10.44     0.073 C 
BRANCH  71  72
ATOM     72  CG  PHE A  77      -8.764   8.358  18.970  1.00  6.07    -0.056 A 
ATOM     73  CD2 PHE A  77      -8.661   7.667  20.156  1.00  9.61     0.007 A 
ATOM     74  CE2 PHE A  77      -9.157   6.375  20.276  1.00  1.00     0.001 A 
ATOM     75  CZ  PHE A  77      -9.767   5.765  19.193  1.00  1.92     0.000 A 
ATOM     76  CE1 PHE A  77      -9.880   6.443  18.000  1.00  9.25     0.001 A 
ATOM     77  CD1 PHE A  77      -9.376   7.739  17.892  1.00  9.63     0.007 A 
ENDBRANCH  71  72
ENDBRANCH  70  71
END_RES PHE A  77
BEGIN_RES LEU A  96
REMARK  2 active torsions:
REMARK  status: ('A' for Active; 'I' for Inactive)
REMARK   25  A    between atoms: CA   and  CB  
REMARK   26  A    between atoms: CB   and  CG  
ROOT
ATOM     78  CA  LEU A  96       0.717   6.481  17.359  1.00 16.08     0.177 C 
ENDROOT
BRANCH  78  79
ATOM     79  CB  LEU A  96      -0.370   7.101  18.230  1.00 18.83     0.038 C 
BRANCH  79  80
ATOM     80  CG  LEU A  96      -0.143   6.948  19.734  1.00 19.03    -0.020 C 
ATOM     81  CD1 LEU A  96       0.448   5.583  20.001  1.00 28.17     0.009 C 
ATOM     82  CD2 LEU A  96       0.827   7.995  20.230  1.00 22.01     0.009 C 
ENDBRANCH  79  80
ENDBRANCH  78  79
END_RES LEU A  96
BEGIN_RES VAL A  98
REMARK  1 active torsions:
REMARK  status: ('A' for Active; 'I' for Inactive)
REMARK   27  A    between atoms: CA   and  CB  
ROOT
ATOM     83  CA  VAL A  98      -3.928   2.082  14.897  1.00 19.83     0.180 C 
ENDROOT
BRANCH  83  84
ATOM     84  CB  VAL A  98      -5.203   2.807  15.281  1.00 17.87     0.009 C 
ATOM     85  CG2 VAL A  98      -4.935   4.283  15.425  1.00 29.90     0.012 C 
ATOM     86  CG1 VAL A  98      -5.744   2.231  16.572  1.00 14.79     0.012 C 
ENDBRANCH  83  84
END_RES VAL A  98
BEGIN_RES ASN A 112
REMARK  2 active torsions:
REMARK  status: ('A' for Active; 'I' for Inactive)
REMARK   28  A    between atoms: CA   and  CB  
REMARK   29  A    between atoms: CB   and  CG  
REMARK       I    between atoms: CG   and  ND2 
ROOT
ATOM     87  CA  ASN A 112     -11.790  -8.793  14.069  1.00 37.70     0.185 C 
ENDROOT
BRANCH  87  88
ATOM     88  CB  ASN A 112     -12.992  -7.945  14.465  1.00 26.24     0.137 C 
BRANCH  88  89
ATOM     89  CG  ASN A 112     -13.814  -8.564  15.573  1.00 21.77     0.217 C 
ATOM     90  ND2 ASN A 112     -14.963  -9.132  15.206  1.00  9.31    -0.370 N 
ATOM     91  H04 ASN A 112     -15.558  -9.561  15.900  1.00  9.31     0.159 HD
ATOM     92  H05 ASN A 112     -15.237  -9.134  14.233  1.00  9.31     0.159 HD
ATOM     93  OD1 ASN A 112     -13.429  -8.529  16.747  1.00 21.61    -0.274 OA
ENDBRANCH  88  89
ENDBRANCH  87  88
END_RES ASN A 112
BEGIN_RES PHE A 114
REMARK  2 active torsions:
REMARK  status: ('A' for Active; 'I' for Inactive)
REMARK   30  A    between atoms: CA   and  CB  
REMARK   31  A    between atoms: CB   and  CG  
ROOT
ATOM     94  CA  PHE A 114      -7.754  -3.619  17.012  1.00 26.06     0.180 C 
ENDROOT
BRANCH  94  95
ATOM     95  CB  PHE A 114      -8.890  -3.080  17.867  1.00 19.95     0.073 C 
BRANCH  95  96
ATOM     96  CG  PHE A 114      -9.217  -1.650  17.584  1.00 17.65    -0.056 A 
ATOM     97  CD1 PHE A 114      -8.209  -0.698  17.465  1.00 13.01     0.007 A 
ATOM     98  CE1 PHE A 114      -8.513   0.637  17.231  1.00  6.74     0.001 A 
ATOM     99  CZ  PHE A 114      -9.840   1.038  17.108  1.00  6.27     0.000 A 
ATOM    100  CE2 PHE A 114     -10.853   0.099  17.223  1.00 17.36     0.001 A 
ATOM    101  CD2 PHE A 114     -10.539  -1.243  17.461  1.00 18.39     0.007 A 
ENDBRANCH  95  96
ENDBRANCH  94  95
END_RES PHE A 114
BEGIN_RES VAL A 116
REMARK  1 active torsions:
REMARK  status: ('A' for Active; 'I' for Inactive)
REMARK   32  A    between atoms: CA   and  CB  
ROOT
ATOM    102  CA  VAL A 116      -2.467   0.283  18.565  1.00 13.48     0.180 C 
ENDROOT
BRANCH 102 103
ATOM    103  CB  VAL A 116      -3.101   1.238  19.599  1.00 20.86     0.009 C 
ATOM    104  CG1 VAL A 116      -2.983   2.682  19.102  1.00 25.01     0.012 C 
ATOM    105  CG2 VAL A 116      -4.538   0.859  19.872  1.00 25.34     0.012 C 
ENDBRANCH 102 103
END_RES VAL A 116
BEGIN_RES ILE A 123
REMARK  2 active torsions:
REMARK  status: ('A' for Active; 'I' for Inactive)
REMARK   33  A    between atoms: CA   and  CB  
REMARK   34  A    between atoms: CB   and  CG1 
ROOT
ATOM    106  CA  ILE A 123       1.557  -1.626  23.222  1.00 15.07     0.180 C 
ENDROOT
BRANCH 106 107
ATOM    107  CB  ILE A 123       1.697  -0.112  23.461  1.00 14.41     0.013 C 
ATOM    108  CG2 ILE A 123       3.098   0.206  23.954  1.00 18.35     0.012 C 
BRANCH 107 109
ATOM    109  CG1 ILE A 123       1.403   0.657  22.175  1.00 15.23     0.002 C 
ATOM    110  CD1 ILE A 123       0.218   1.586  22.283  1.00 14.67     0.005 C 
ENDBRANCH 107 109
ENDBRANCH 106 107
END_RES ILE A 123
BEGIN_RES LEU A 124
REMARK  2 active torsions:
REMARK  status: ('A' for Active; 'I' for Inactive)
REMARK   35  A    between atoms: CA   and  CB  
REMARK   36  A    between atoms: CB   and  CG  
ROOT
ATOM    111  CA  LEU A 124      -2.057  -2.686  23.524  1.00 11.86     0.177 C 
ENDROOT
BRANCH 111 112
ATOM    112  CB  LEU A 124      -2.698  -1.652  24.429  1.00 14.60     0.038 C 
BRANCH 112 113
ATOM    113  CG  LEU A 124      -2.604  -0.249  23.849  1.00 16.19    -0.020 C 
ATOM    114  CD1 LEU A 124      -4.015   0.224  23.449  1.00 22.07     0.009 C 
ATOM    115  CD2 LEU A 124      -1.969   0.672  24.861  1.00  9.12     0.009 C 
ENDBRANCH 112 113
ENDBRANCH 111 112
END_RES LEU A 124
BEGIN_RES PHE A 126
REMARK  2 active torsions:
REMARK  status: ('A' for Active; 'I' for Inactive)
REMARK   37  A    between atoms: CA   and  CB  
REMARK   38  A    between atoms: CB   and  CG  
ROOT
ATOM    116  CA  PHE A 126      -8.784  -4.792  22.233  1.00 23.15     0.180 C 
ENDROOT
BRANCH 116 117
ATOM    117  CB  PHE A 126      -9.823  -4.011  21.461  1.00 20.65     0.073 C 
BRANCH 117 118
ATOM    118  CG  PHE A 126     -10.953  -3.549  22.295  1.00 23.65    -0.056 A 
ATOM    119  CD2 PHE A 126     -12.210  -4.111  22.154  1.00 36.63     0.007 A 
ATOM    120  CE2 PHE A 126     -13.280  -3.674  22.946  1.00 36.27     0.001 A 
ATOM    121  CZ  PHE A 126     -13.083  -2.668  23.881  1.00 18.06     0.000 A 
ATOM    122  CE1 PHE A 126     -11.830  -2.107  24.026  1.00  5.50     0.001 A 
ATOM    123  CD1 PHE A 126     -10.770  -2.551  23.236  1.00 15.29     0.007 A 
ENDBRANCH 117 118
ENDBRANCH 116 117
END_RES PHE A 126
BEGIN_RES TRP A 131
REMARK  2 active torsions:
REMARK  status: ('A' for Active; 'I' for Inactive)
REMARK   39  A    between atoms: CA   and  CB  
REMARK   40  A    between atoms: CB   and  CG  
ROOT
ATOM    124  CA  TRP A 131      -8.096  -3.335  26.542  1.00 14.52     0.181 C 
ENDROOT
BRANCH 124 125
ATOM    125  CB  TRP A 131      -7.651  -1.877  26.607  1.00 13.06     0.075 C 
BRANCH 125 126
ATOM    126  CG  TRP A 131      -8.048  -1.052  25.403  1.00 16.97    -0.028 A 
ATOM    127  CD2 TRP A 131      -9.129  -0.118  25.329  1.00 11.34    -0.002 A 
ATOM    128  CE2 TRP A 131      -9.131   0.424  24.029  1.00  5.87     0.042 A 
ATOM    129  CE3 TRP A 131     -10.098   0.311  26.242  1.00  3.80     0.014 A 
ATOM    130  CZ2 TRP A 131     -10.064   1.378  23.618  1.00  1.35     0.030 A 
ATOM    131  NE1 TRP A 131      -8.099  -0.154  23.340  1.00 13.90    -0.365 N 
ATOM    132  CH2 TRP A 131     -11.003   1.782  24.535  1.00  1.00     0.002 A 
ATOM    133  CZ3 TRP A 131     -11.027   1.254  25.840  1.00  1.00     0.001 A 
ATOM    134  CD1 TRP A 131      -7.452  -1.039  24.171  1.00 17.22     0.096 A 
ATOM    135  H07 TRP A 131      -7.853   0.038  22.380  1.00 13.90     0.165 HD
ENDBRANCH 125 126
ENDBRANCH 124 125
END_RES TRP A 131
BEGIN_RES LEU A 148
REMARK  2 active torsions:
REMARK  status: ('A' for Active; 'I' for Inactive)
REMARK   41  A    between atoms: CA   and  CB  
REMARK   42  A    between atoms: CB   and  CG  
ROOT
ATOM    136  CA  LEU A 148      -9.018   3.259  29.295  1.00 16.99     0.177 C 
ENDROOT
BRANCH 136 137
ATOM    137  CB  LEU A 148      -8.166   2.574  28.236  1.00  6.39     0.038 C 
BRANCH 137 138
ATOM    138  CG  LEU A 148      -7.539   3.364  27.105  1.00  1.00    -0.020 C 
ATOM    139  CD2 LEU A 148      -8.602   4.039  26.289  1.00  1.00     0.009 C 
ATOM    140  CD1 LEU A 148      -6.733   2.407  26.246  1.00  2.71     0.009 C 
ENDBRANCH 137 138
ENDBRANCH 136 137
END_RES LEU A 148
BEGIN_RES THR A 154
REMARK  2 active torsions:
REMARK  status: ('A' for Active; 'I' for Inactive)
REMARK   43  A    between atoms: CA   and  CB  
REMARK   44  A    between atoms: CB   and  OG1 
ROOT
ATOM    141  CA  THR A 154     -15.990   3.959  24.426  1.00 20.45     0.205 C 
ENDROOT
BRANCH 141 142
ATOM    142  CB  THR A 154     -14.777   4.829  24.694  1.00 16.79     0.146 C 
ATOM    143  CG2 THR A 154     -13.671   4.503  23.709  1.00 20.24     0.042 C 
BRANCH 142 144
ATOM    144  OG1 THR A 154     -15.148   6.204  24.535  1.00 18.84    -0.393 OA
ATOM    145  H06 THR A 154     -14.584   6.754  25.084  1.00 18.84     0.210 HD
ENDBRANCH 142 144
ENDBRANCH 141 142
END_RES THR A 154
BEGIN_RES VAL A 158
REMARK  1 active torsions:
REMARK  status: ('A' for Active; 'I' for Inactive)
REMARK   45  A    between atoms: CA   and  CB  
ROOT
ATOM    146  CA  VAL A 158     -15.487  -0.189  19.892  1.00 15.49     0.180 C 
ENDROOT
BRANCH 146 147
ATOM    147  CB  VAL A 158     -14.291  -0.273  20.822  1.00  6.52     0.009 C 
ATOM    148  CG1 VAL A 158     -13.242  -1.209  20.268  1.00  1.00     0.012 C 
ATOM    149  CG2 VAL A 158     -13.728   1.102  21.006  1.00  5.99     0.012 C 
ENDBRANCH 146 147
END_RES VAL A 158
BEGIN_RES LEU A 161
REMARK  2 active torsions:
REMARK  status: ('A' for Active; 'I' for Inactive)
REMARK   46  A    between atoms: CA   and  CB  
REMARK   47  A    between atoms: CB   and  CG  
ROOT
ATOM    150  CA  LEU A 161     -18.031  -1.858  15.935  1.00 13.31     0.177 C 
ENDROOT
BRANCH 150 151
ATOM    151  CB  LEU A 161     -17.046  -0.706  16.001  1.00 14.13     0.038 C 
BRANCH 151 152
ATOM    152  CG  LEU A 161     -17.429   0.554  15.235  1.00 19.39    -0.020 C 
ATOM    153  CD2 LEU A 161     -18.876   0.900  15.488  1.00 27.75     0.009 C 
ATOM    154  CD1 LEU A 161     -17.205   0.317  13.766  1.00 18.59     0.009 C 
ENDBRANCH 151 152
ENDBRANCH 150 151
END_RES LEU A 161
BEGIN_RES GLN A 168
REMARK  3 active torsions:
REMARK  status: ('A' for Active; 'I' for Inactive)
REMARK   48  A    between atoms: CA   and  CB  
REMARK   49  A    between atoms: CB   and  CG  
REMARK   50  A    between atoms: CG   and  CD  
REMARK       I    between atoms: CD   and  NE2 
ROOT
ATOM    155  CA  GLN A 168     -22.035  -6.020   8.155  1.00 30.94     0.177 C 
ENDROOT
BRANCH 155 156
ATOM    156  CB  GLN A 168     -23.054  -5.218   8.946  1.00 41.76     0.044 C 
BRANCH 156 157
ATOM    157  CG  GLN A 168     -24.480  -5.414   8.506  1.00 61.20     0.105 C 
BRANCH 157 158
ATOM    158  CD  GLN A 168     -24.986  -4.239   7.692  1.00 75.49     0.215 C 
ATOM    159  NE2 GLN A 168     -25.530  -3.234   8.382  1.00 85.00    -0.370 N 
ATOM    160  H06 GLN A 168     -25.888  -2.424   7.897  1.00 85.00     0.159 HD
ATOM    161  H07 GLN A 168     -25.583  -3.284   9.390  1.00 85.00     0.159 HD
ATOM    162  OE1 GLN A 168     -24.898  -4.232   6.456  1.00 73.64    -0.274 OA
ENDBRANCH 157 158
ENDBRANCH 156 157
ENDBRANCH 155 156
END_RES GLN A 168
ENDMDL
MODEL 3
REMARK VINA RESULT:      -6.4      1.422      2.411
REMARK  Name = human_CD1d_LDAO_pred.rank_0
REMARK  11 active torsions:
REMARK  status: ('A' for Active; 'I' for Inactive)
REMARK    1  A    between atoms: N_2  and  C_14
REMARK    2  A    between atoms: C_4  and  C_5
REMARK    3  A    between atoms: C_5  and  C_6
REMARK    4  A    between atoms: C_6  and  C_7
REMARK    5  A    between atoms: C_7  and  C_8
REMARK    6  A    between atoms: C_8  and  C_9
REMARK    7  A    between atoms: C_9  and  C_10
REMARK    8  A    between atoms: C_10  and  C_11
REMARK    9  A    between atoms: C_11  and  C_12
REMARK   10  A    between atoms: C_12  and  C_13
REMARK   11  A    between atoms: C_13  and  C_14
REMARK                            x       y       z     vdW  Elec       q    Type
REMARK                         _______ _______ _______ _____ _____    ______ ____
ROOT
ATOM      1  C   UNL     1     -15.030   3.964  14.217  0.00  0.00    +0.000 C 
ENDROOT
BRANCH   1   2
ATOM      2  C   UNL     1     -16.243   3.908  13.253  0.00  0.00    +0.000 C 
BRANCH   2   3
ATOM      3  C   UNL     1     -16.402   5.193  12.388  0.00  0.00    +0.000 C 
BRANCH   3   4
ATOM      4  C   UNL     1     -16.209   4.898  10.904  0.00  0.00    +0.000 C 
BRANCH   4   5
ATOM      5  C   UNL     1     -15.899   3.414  10.652  0.00  0.00    +0.000 C 
BRANCH   5   6
ATOM      6  C   UNL     1     -16.118   3.039   9.178  0.00  0.00    +0.000 C 
BRANCH   6   8
ATOM      7  C   UNL     1     -18.029   1.973   7.944  0.00  0.00    +0.000 C 
ATOM      8  C   UNL     1     -16.975   1.803   9.034  0.00  0.00    +0.000 C 
ENDBRANCH   6   8
ENDBRANCH   5   6
ENDBRANCH   4   5
ENDBRANCH   3   4
ENDBRANCH   2   3
ENDBRANCH   1   2
BRANCH   1   9
ATOM      9  C   UNL     1     -14.060   2.788  13.998  0.00  0.00    +0.000 C 
BRANCH   9  10
ATOM     10  C   UNL     1     -12.962   2.764  15.068  0.00  0.00    +0.000 C 
BRANCH  10  11
ATOM     11  C   UNL     1     -11.570   3.105  14.497  0.00  0.00    +0.000 C 
BRANCH  11  12
ATOM     12  C   UNL     1     -10.981   4.365  15.133  0.00  0.00    +0.000 C 
BRANCH  12  13
ATOM     13  N   UNL     1      -9.739   4.752  14.419  0.00  0.00    +0.000 N 
ATOM     14  O   UNL     1      -9.709   4.215  13.200  0.00  0.00    +0.000 OA
ATOM     15  C   UNL     1      -9.732   6.221  14.289  0.00  0.00    +0.000 C 
ATOM     16  C   UNL     1      -8.578   4.330  15.180  0.00  0.00    +0.000 C 
ENDBRANCH  12  13
ENDBRANCH  11  12
ENDBRANCH  10  11
ENDBRANCH   9  10
ENDBRANCH   1   9
TORSDOF 11
BEGIN_RES LEU A  10
REMARK  2 active torsions:
REMARK  status: ('A' for Active; 'I' for Inactive)
REMARK    1  A    between atoms: CA   and  CB  
REMARK    2  A    between atoms: CB   and  CG  
ROOT
ATOM      1  CA  LEU A  10     -10.775  -4.871   5.898  1.00 25.14     0.177 C 
ENDROOT
BRANCH   1   2
ATOM      2  CB  LEU A  10     -12.191  -4.387   6.226  1.00 17.87     0.038 C 
BRANCH   2   3
ATOM      3  CG  LEU A  10     -12.386  -2.874   6.108  1.00 24.95    -0.020 C 
ATOM      4  CD2 LEU A  10     -13.678  -2.498   6.751  1.00 26.38     0.009 C 
ATOM      5  CD1 LEU A  10     -12.365  -2.436   4.653  1.00 28.12     0.009 C 
ENDBRANCH   2   3
ENDBRANCH   1   2
END_RES LEU A  10
BEGIN_RES CYS A  12
REMARK  2 active torsions:
REMARK  status: ('A' for Active; 'I' for Inactive)
REMARK    3  A    between atoms: CA   and  CB  
REMARK    4  A    between atoms: CB   and  SG  
ROOT
ATOM      6  CA  CYS A  12      -8.555   0.470   8.750  1.00 23.16     0.185 C 
ENDROOT
BRANCH   6   7
ATOM      7  CB  CYS A  12      -9.828   0.763   9.555  1.00 20.43     0.105 C 
BRANCH   7   8
ATOM      8  SG  CYS A  12     -11.299   1.220   8.587  1.00 24.64    -0.180 SA
ATOM      9  H04 CYS A  12     -11.847   0.117   8.059  1.00 24.64     0.101 HD
ENDBRANCH   7   8
ENDBRANCH   6   7
END_RES CYS A  12
BEGIN_RES GLN A  14
REMARK  3 active torsions:
REMARK  status: ('A' for Active; 'I' for Inactive)
REMARK    5  A    between atoms: CA   and  CB  
REMARK    6  A    between atoms: CB   and  CG  
REMARK    7  A    between atoms: CG   and  CD  
REMARK       I    between atoms: CD   and  NE2 
ROOT
ATOM     10  CA  GLN A  14      -4.645   5.402  11.377  1.00 10.43     0.177 C 
ENDROOT
BRANCH  10  11
ATOM     11  CB  GLN A  14      -5.541   5.549  12.608  1.00 14.45     0.044 C 
BRANCH  11  12
ATOM     12  CG  GLN A  14      -6.498   6.717  12.539  1.00 13.74     0.105 C 
BRANCH  12  13
ATOM     13  CD  GLN A  14      -5.909   7.981  13.118  1.00 16.29     0.215 C 
ATOM     14  NE2 GLN A  14      -6.362   8.352  14.296  1.00  8.57    -0.370 N 
ATOM     15  H06 GLN A  14      -6.003   9.189  14.733  1.00  8.57     0.159 HD
ATOM     16  H07 GLN A  14      -7.067   7.800  14.763  1.00  8.57     0.159 HD
ATOM     17  OE1 GLN A  14      -5.056   8.612  12.514  1.00 23.55    -0.274 OA
ENDBRANCH  12  13
ENDBRANCH  11  12
ENDBRANCH  10  11
END_RES GLN A  14
BEGIN_RES SER A  16
REMARK  2 active torsions:
REMARK  status: ('A' for Active; 'I' for Inactive)
REMARK    8  A    between atoms: CA   and  CB  
REMARK    9  A    between atoms: CB   and  OG  
ROOT
ATOM     18  CA  SER A  16      -1.305  10.019  14.282  1.00  2.34     0.200 C 
ENDROOT
BRANCH  18  19
ATOM     19  CB  SER A  16      -2.242   9.935  15.479  1.00  3.12     0.199 C 
BRANCH  19  20
ATOM     20  OG  SER A  16      -3.477   9.354  15.098  1.00  1.00    -0.398 OA
ATOM     21  H04 SER A  16      -3.896   8.960  15.867  1.00  1.00     0.209 HD
ENDBRANCH  19  20
ENDBRANCH  18  19
END_RES SER A  16
BEGIN_RES LEU A  32
REMARK  2 active torsions:
REMARK  status: ('A' for Active; 'I' for Inactive)
REMARK   10  A    between atoms: CA   and  CB  
REMARK   11  A    between atoms: CB   and  CG  
ROOT
ATOM     22  CA  LEU A  32     -10.272  -4.106   1.587  1.00 16.16     0.177 C 
ENDROOT
BRANCH  22  23
ATOM     23  CB  LEU A  32     -11.613  -3.858   0.880  1.00 12.35     0.038 C 
BRANCH  23  24
ATOM     24  CG  LEU A  32     -12.579  -5.049   1.047  1.00  9.77    -0.020 C 
ATOM     25  CD1 LEU A  32     -13.028  -5.163   2.484  1.00  4.35     0.009 C 
ATOM     26  CD2 LEU A  32     -13.779  -4.896   0.150  1.00 10.60     0.009 C 
ENDBRANCH  23  24
ENDBRANCH  22  23
END_RES LEU A  32
BEGIN_RES HIS A  38
REMARK  2 active torsions:
REMARK  status: ('A' for Active; 'I' for Inactive)
REMARK   12  A    between atoms: CA   and  CB  
REMARK   13  A    between atoms: CB   and  CG  
ROOT
ATOM     27  CA  HIS A  38     -10.959   4.941   1.621  1.00 16.94     0.182 C 
ENDROOT
BRANCH  27  28
ATOM     28  CB  HIS A  38     -11.810   4.840   2.881  1.00 15.47     0.095 C 
BRANCH  28  29
ATOM     29  CG  HIS A  38     -12.994   3.939   2.739  1.00 18.62     0.053 A 
ATOM     30  CD2 HIS A  38     -14.152   4.094   2.054  1.00 15.06     0.116 A 
ATOM     31  NE2 HIS A  38     -14.884   2.948   2.237  1.00 18.12    -0.359 N 
ATOM     32  CE1 HIS A  38     -14.203   2.121   3.007  1.00 14.78     0.207 A 
ATOM     33  H06 HIS A  38     -15.797   2.768   1.846  1.00 18.12     0.166 HD
ATOM     34  ND1 HIS A  38     -13.059   2.693   3.325  1.00 16.58    -0.247 NA
ENDBRANCH  28  29
ENDBRANCH  27  28
END_RES HIS A  38
BEGIN_RES TRP A  63
REMARK  2 active torsions:
REMARK  status: ('A' for Active; 'I' for Inactive)
REMARK   14  A    between atoms: CA   and  CB  
REMARK   15  A    between atoms: CB   and  CG  
ROOT
ATOM     35  CA  TRP A  63     -22.437   6.257   6.543  1.00 27.04     0.181 C 
ENDROOT
BRANCH  35  36
ATOM     36  CB  TRP A  63     -22.360   6.642   5.068  1.00 31.37     0.075 C 
BRANCH  36  37
ATOM     37  CG  TRP A  63     -20.954   6.841   4.542  1.00 34.37    -0.028 A 
ATOM     38  CD2 TRP A  63     -19.875   5.896   4.571  1.00 33.79    -0.002 A 
ATOM     39  CE3 TRP A  63     -19.724   4.608   5.090  1.00 32.99     0.014 A 
ATOM     40  CE2 TRP A  63     -18.781   6.492   3.906  1.00 35.84     0.042 A 
ATOM     41  CZ3 TRP A  63     -18.505   3.964   4.933  1.00 32.93     0.001 A 
ATOM     42  CH2 TRP A  63     -17.436   4.584   4.267  1.00 39.24     0.002 A 
ATOM     43  CZ2 TRP A  63     -17.555   5.845   3.747  1.00 37.99     0.030 A 
ATOM     44  NE1 TRP A  63     -19.180   7.735   3.498  1.00 37.98    -0.365 N 
ATOM     45  H06 TRP A  63     -18.610   8.399   2.994  1.00 37.98     0.165 HD
ATOM     46  CD1 TRP A  63     -20.483   7.934   3.886  1.00 38.16     0.096 A 
ENDBRANCH  36  37
ENDBRANCH  35  36
END_RES TRP A  63
BEGIN_RES LEU A  66
REMARK  2 active torsions:
REMARK  status: ('A' for Active; 'I' for Inactive)
REMARK   16  A    between atoms: CA   and  CB  
REMARK   17  A    between atoms: CB   and  CG  
ROOT
ATOM     47  CA  LEU A  66     -20.004   6.489  11.120  1.00 10.90     0.177 C 
ENDROOT
BRANCH  47  48
ATOM     48  CB  LEU A  66     -19.626   5.453  10.069  1.00 13.57     0.038 C 
BRANCH  48  49
ATOM     49  CG  LEU A  66     -19.654   3.985  10.492  1.00  8.73    -0.020 C 
ATOM     50  CD1 LEU A  66     -19.760   3.866  11.990  1.00 14.23     0.009 C 
ATOM     51  CD2 LEU A  66     -20.838   3.321   9.836  1.00  1.92     0.009 C 
ENDBRANCH  48  49
ENDBRANCH  47  48
END_RES LEU A  66
BEGIN_RES PHE A  70
REMARK  2 active torsions:
REMARK  status: ('A' for Active; 'I' for Inactive)
REMARK   18  A    between atoms: CA   and  CB  
REMARK   19  A    between atoms: CB   and  CG  
ROOT
ATOM     52  CA  PHE A  70     -14.974   9.434  13.165  1.00  8.78     0.180 C 
ENDROOT
BRANCH  52  53
ATOM     53  CB  PHE A  70     -14.707   9.132  11.681  1.00  6.33     0.073 C 
BRANCH  53  54
ATOM     54  CG  PHE A  70     -13.913   7.873  11.460  1.00  3.42    -0.056 A 
ATOM     55  CD1 PHE A  70     -13.672   7.394  10.181  1.00 13.88     0.007 A 
ATOM     56  CE1 PHE A  70     -12.970   6.192   9.984  1.00 12.71     0.001 A 
ATOM     57  CZ  PHE A  70     -12.505   5.464  11.078  1.00  4.21     0.000 A 
ATOM     58  CE2 PHE A  70     -12.736   5.932  12.358  1.00  2.83     0.001 A 
ATOM     59  CD2 PHE A  70     -13.439   7.135  12.545  1.00  1.00     0.007 A 
ENDBRANCH  53  54
ENDBRANCH  52  53
END_RES PHE A  70
BEGIN_RES TYR A  73
REMARK  3 active torsions:
REMARK  status: ('A' for Active; 'I' for Inactive)
REMARK   20  A    between atoms: CA   and  CB  
REMARK   21  A    between atoms: CB   and  CG  
REMARK   22  A    between atoms: CZ   and  OH  
ROOT
ATOM     60  CA  TYR A  73     -13.212  10.166  17.260  1.00 12.17     0.180 C 
ENDROOT
BRANCH  60  61
ATOM     61  CB  TYR A  73     -13.301   8.846  16.517  1.00 12.84     0.073 C 
BRANCH  61  62
ATOM     62  CG  TYR A  73     -13.407   7.671  17.425  1.00 15.89    -0.056 A 
ATOM     63  CD1 TYR A  73     -13.304   7.817  18.791  1.00 16.00     0.010 A 
ATOM     64  CE1 TYR A  73     -13.373   6.714  19.642  1.00 13.55     0.037 A 
ATOM     65  CZ  TYR A  73     -13.546   5.454  19.104  1.00 18.13     0.065 A 
ATOM     66  CE2 TYR A  73     -13.653   5.282  17.744  1.00 15.89     0.037 A 
ATOM     67  CD2 TYR A  73     -13.583   6.392  16.911  1.00 21.86     0.010 A 
BRANCH  65  68
ATOM     68  OH  TYR A  73     -13.622   4.355  19.923  1.00 12.12    -0.361 OA
ATOM     69  H08 TYR A  73     -12.788   3.880  19.901  1.00 12.12     0.217 HD
ENDBRANCH  65  68
ENDBRANCH  61  62
ENDBRANCH  60  61
END_RES TYR A  73
BEGIN_RES PHE A  77
REMARK  2 active torsions:
REMARK  status: ('A' for Active; 'I' for Inactive)
REMARK   23  A    between atoms: CA   and  CB  
REMARK   24  A    between atoms: CB   and  CG  
ROOT
ATOM     70  CA  PHE A  77      -8.400  10.581  20.110  1.00 17.17     0.180 C 
ENDROOT
BRANCH  70  71
ATOM     71  CB  PHE A  77      -8.228   9.750  18.851  1.00 10.44     0.073 C 
BRANCH  71  72
ATOM     72  CG  PHE A  77      -8.795   8.369  18.958  1.00  6.07    -0.056 A 
ATOM     73  CD2 PHE A  77      -9.392   7.772  17.871  1.00  9.61     0.007 A 
ATOM     74  CE2 PHE A  77      -9.919   6.489  17.961  1.00  1.00     0.001 A 
ATOM     75  CZ  PHE A  77      -9.845   5.793  19.156  1.00  1.92     0.000 A 
ATOM     76  CE1 PHE A  77      -9.250   6.376  20.252  1.00  9.25     0.001 A 
ATOM     77  CD1 PHE A  77      -8.727   7.664  20.148  1.00  9.63     0.007 A 
ENDBRANCH  71  72
ENDBRANCH  70  71
END_RES PHE A  77
BEGIN_RES LEU A  96
REMARK  2 active torsions:
REMARK  status: ('A' for Active; 'I' for Inactive)
REMARK   25  A    between atoms: CA   and  CB  
REMARK   26  A    between atoms: CB   and  CG  
ROOT
ATOM     78  CA  LEU A  96       0.717   6.481  17.359  1.00 16.08     0.177 C 
ENDROOT
BRANCH  78  79
ATOM     79  CB  LEU A  96      -0.370   7.101  18.230  1.00 18.83     0.038 C 
BRANCH  79  80
ATOM     80  CG  LEU A  96      -0.154   6.929  19.733  1.00 19.03    -0.020 C 
ATOM     81  CD1 LEU A  96      -1.407   7.361  20.459  1.00 28.17     0.009 C 
ATOM     82  CD2 LEU A  96       0.115   5.479  20.065  1.00 22.01     0.009 C 
ENDBRANCH  79  80
ENDBRANCH  78  79
END_RES LEU A  96
BEGIN_RES VAL A  98
REMARK  1 active torsions:
REMARK  status: ('A' for Active; 'I' for Inactive)
REMARK   27  A    between atoms: CA   and  CB  
ROOT
ATOM     83  CA  VAL A  98      -3.928   2.082  14.897  1.00 19.83     0.180 C 
ENDROOT
BRANCH  83  84
ATOM     84  CB  VAL A  98      -5.203   2.807  15.281  1.00 17.87     0.009 C 
ATOM     85  CG2 VAL A  98      -4.920   4.271  15.500  1.00 29.90     0.012 C 
ATOM     86  CG1 VAL A  98      -5.786   2.180  16.530  1.00 14.79     0.012 C 
ENDBRANCH  83  84
END_RES VAL A  98
BEGIN_RES ASN A 112
REMARK  2 active torsions:
REMARK  status: ('A' for Active; 'I' for Inactive)
REMARK   28  A    between atoms: CA   and  CB  
REMARK   29  A    between atoms: CB   and  CG  
REMARK       I    between atoms: CG   and  ND2 
ROOT
ATOM     87  CA  ASN A 112     -11.790  -8.793  14.069  1.00 37.70     0.185 C 
ENDROOT
BRANCH  87  88
ATOM     88  CB  ASN A 112     -12.992  -7.945  14.465  1.00 26.24     0.137 C 
BRANCH  88  89
ATOM     89  CG  ASN A 112     -13.814  -8.564  15.573  1.00 21.77     0.217 C 
ATOM     90  ND2 ASN A 112     -14.964  -9.130  15.206  1.00  9.31    -0.370 N 
ATOM     91  H04 ASN A 112     -15.559  -9.559  15.901  1.00  9.31     0.159 HD
ATOM     92  H05 ASN A 112     -15.239  -9.131  14.235  1.00  9.31     0.159 HD
ATOM     93  OD1 ASN A 112     -13.427  -8.530  16.747  1.00 21.61    -0.274 OA
ENDBRANCH  88  89
ENDBRANCH  87  88
END_RES ASN A 112
BEGIN_RES PHE A 114
REMARK  2 active torsions:
REMARK  status: ('A' for Active; 'I' for Inactive)
REMARK   30  A    between atoms: CA   and  CB  
REMARK   31  A    between atoms: CB   and  CG  
ROOT
ATOM     94  CA  PHE A 114      -7.754  -3.619  17.012  1.00 26.06     0.180 C 
ENDROOT
BRANCH  94  95
ATOM     95  CB  PHE A 114      -8.890  -3.080  17.867  1.00 19.95     0.073 C 
BRANCH  95  96
ATOM     96  CG  PHE A 114      -9.226  -1.654  17.574  1.00 17.65    -0.056 A 
ATOM     97  CD1 PHE A 114      -8.224  -0.693  17.466  1.00 13.01     0.007 A 
ATOM     98  CE1 PHE A 114      -8.537   0.638  17.223  1.00  6.74     0.001 A 
ATOM     99  CZ  PHE A 114      -9.866   1.027  17.082  1.00  6.27     0.000 A 
ATOM    100  CE2 PHE A 114     -10.872   0.079  17.187  1.00 17.36     0.001 A 
ATOM    101  CD2 PHE A 114     -10.549  -1.259  17.433  1.00 18.39     0.007 A 
ENDBRANCH  95  96
ENDBRANCH  94  95
END_RES PHE A 114
BEGIN_RES VAL A 116
REMARK  1 active torsions:
REMARK  status: ('A' for Active; 'I' for Inactive)
REMARK   32  A    between atoms: CA   and  CB  
ROOT
ATOM    102  CA  VAL A 116      -2.467   0.283  18.565  1.00 13.48     0.180 C 
ENDROOT
BRANCH 102 103
ATOM    103  CB  VAL A 116      -3.101   1.238  19.599  1.00 20.86     0.009 C 
ATOM    104  CG1 VAL A 116      -3.012   2.678  19.087  1.00 25.01     0.012 C 
ATOM    105  CG2 VAL A 116      -4.528   0.840  19.896  1.00 25.34     0.012 C 
ENDBRANCH 102 103
END_RES VAL A 116
BEGIN_RES ILE A 123
REMARK  2 active torsions:
REMARK  status: ('A' for Active; 'I' for Inactive)
REMARK   33  A    between atoms: CA   and  CB  
REMARK   34  A    between atoms: CB   and  CG1 
ROOT
ATOM    106  CA  ILE A 123       1.557  -1.626  23.222  1.00 15.07     0.180 C 
ENDROOT
BRANCH 106 107
ATOM    107  CB  ILE A 123       1.697  -0.112  23.461  1.00 14.41     0.013 C 
ATOM    108  CG2 ILE A 123       3.087   0.202  23.987  1.00 18.35     0.012 C 
BRANCH 107 109
ATOM    109  CG1 ILE A 123       1.436   0.655  22.167  1.00 15.23     0.002 C 
ATOM    110  CD1 ILE A 123       0.199   1.519  22.214  1.00 14.67     0.005 C 
ENDBRANCH 107 109
ENDBRANCH 106 107
END_RES ILE A 123
BEGIN_RES LEU A 124
REMARK  2 active torsions:
REMARK  status: ('A' for Active; 'I' for Inactive)
REMARK   35  A    between atoms: CA   and  CB  
REMARK   36  A    between atoms: CB   and  CG  
ROOT
ATOM    111  CA  LEU A 124      -2.057  -2.686  23.524  1.00 11.86     0.177 C 
ENDROOT
BRANCH 111 112
ATOM    112  CB  LEU A 124      -2.698  -1.652  24.429  1.00 14.60     0.038 C 
BRANCH 112 113
ATOM    113  CG  LEU A 124      -2.633  -0.253  23.834  1.00 16.19    -0.020 C 
ATOM    114  CD1 LEU A 124      -4.057   0.198  23.457  1.00 22.07     0.009 C 
ATOM    115  CD2 LEU A 124      -1.990   0.685  24.825  1.00  9.12     0.009 C 
ENDBRANCH 112 113
ENDBRANCH 111 112
END_RES LEU A 124
BEGIN_RES PHE A 126
REMARK  2 active torsions:
REMARK  status: ('A' for Active; 'I' for Inactive)
REMARK   37  A    between atoms: CA   and  CB  
REMARK   38  A    between atoms: CB   and  CG  
ROOT
ATOM    116  CA  PHE A 126      -8.784  -4.792  22.233  1.00 23.15     0.180 C 
ENDROOT
BRANCH 116 117
ATOM    117  CB  PHE A 126      -9.823  -4.011  21.461  1.00 20.65     0.073 C 
BRANCH 117 118
ATOM    118  CG  PHE A 126     -10.952  -3.548  22.295  1.00 23.65    -0.056 A 
ATOM    119  CD2 PHE A 126     -10.771  -2.551  23.238  1.00 36.63     0.007 A 
ATOM    120  CE2 PHE A 126     -11.843  -2.112  24.027  1.00 36.27     0.001 A 
ATOM    121  CZ  PHE A 126     -13.098  -2.679  23.867  1.00 18.06     0.000 A 
ATOM    122  CE1 PHE A 126     -13.283  -3.672  22.926  1.00  5.50     0.001 A 
ATOM    123  CD1 PHE A 126     -12.212  -4.101  22.142  1.00 15.29     0.007 A 
ENDBRANCH 117 118
ENDBRANCH 116 117
END_RES PHE A 126
BEGIN_RES TRP A 131
REMARK  2 active torsions:
REMARK  status: ('A' for Active; 'I' for Inactive)
REMARK   39  A    between atoms: CA   and  CB  
REMARK   40  A    between atoms: CB   and  CG  
ROOT
ATOM    124  CA  TRP A 131      -8.096  -3.335  26.542  1.00 14.52     0.181 C 
ENDROOT
BRANCH 124 125
ATOM    125  CB  TRP A 131      -7.651  -1.877  26.607  1.00 13.06     0.075 C 
BRANCH 125 126
ATOM    126  CG  TRP A 131      -8.053  -1.050  25.406  1.00 16.97    -0.028 A 
ATOM    127  CD2 TRP A 131      -9.135  -0.117  25.337  1.00 11.34    -0.002 A 
ATOM    128  CE2 TRP A 131      -9.143   0.427  24.038  1.00  5.87     0.042 A 
ATOM    129  CE3 TRP A 131     -10.101   0.310  26.255  1.00  3.80     0.014 A 
ATOM    130  CZ2 TRP A 131     -10.078   1.381  23.633  1.00  1.35     0.030 A 
ATOM    131  NE1 TRP A 131      -8.114  -0.149  23.345  1.00 13.90    -0.365 N 
ATOM    132  CH2 TRP A 131     -11.013   1.783  24.554  1.00  1.00     0.002 A 
ATOM    133  CZ3 TRP A 131     -11.032   1.254  25.858  1.00  1.00     0.001 A 
ATOM    134  CD1 TRP A 131      -7.463  -1.035  24.172  1.00 17.22     0.096 A 
ATOM    135  H07 TRP A 131      -7.871   0.044  22.384  1.00 13.90     0.165 HD
ENDBRANCH 125 126
ENDBRANCH 124 125
END_RES TRP A 131
BEGIN_RES LEU A 148
REMARK  2 active torsions:
REMARK  status: ('A' for Active; 'I' for Inactive)
REMARK   41  A    between atoms: CA   and  CB  
REMARK   42  A    between atoms: CB   and  CG  
ROOT
ATOM    136  CA  LEU A 148      -9.018   3.259  29.295  1.00 16.99     0.177 C 
ENDROOT
BRANCH 136 137
ATOM    137  CB  LEU A 148      -8.166   2.574  28.236  1.00  6.39     0.038 C 
BRANCH 137 138
ATOM    138  CG  LEU A 148      -7.540   3.364  27.105  1.00  1.00    -0.020 C 
ATOM    139  CD2 LEU A 148      -8.604   4.040  26.290  1.00  1.00     0.009 C 
ATOM    140  CD1 LEU A 148      -6.736   2.406  26.244  1.00  2.71     0.009 C 
ENDBRANCH 137 138
ENDBRANCH 136 137
END_RES LEU A 148
BEGIN_RES THR A 154
REMARK  2 active torsions:
REMARK  status: ('A' for Active; 'I' for Inactive)
REMARK   43  A    between atoms: CA   and  CB  
REMARK   44  A    between atoms: CB   and  OG1 
ROOT
ATOM    141  CA  THR A 154     -15.990   3.959  24.426  1.00 20.45     0.205 C 
ENDROOT
BRANCH 141 142
ATOM    142  CB  THR A 154     -14.777   4.829  24.694  1.00 16.79     0.146 C 
ATOM    143  CG2 THR A 154     -13.669   4.499  23.712  1.00 20.24     0.042 C 
BRANCH 142 144
ATOM    144  OG1 THR A 154     -15.146   6.204  24.530  1.00 18.84    -0.393 OA
ATOM    145  H06 THR A 154     -16.016   6.257  24.128  1.00 18.84     0.210 HD
ENDBRANCH 142 144
ENDBRANCH 141 142
END_RES THR A 154
BEGIN_RES VAL A 158
REMARK  1 active torsions:
REMARK  status: ('A' for Active; 'I' for Inactive)
REMARK   45  A    between atoms: CA   and  CB  
ROOT
ATOM    146  CA  VAL A 158     -15.487  -0.189  19.892  1.00 15.49     0.180 C 
ENDROOT
BRANCH 146 147
ATOM    147  CB  VAL A 158     -14.291  -0.273  20.822  1.00  6.52     0.009 C 
ATOM    148  CG1 VAL A 158     -13.238  -1.202  20.263  1.00  1.00     0.012 C 
ATOM    149  CG2 VAL A 158     -13.735   1.104  21.014  1.00  5.99     0.012 C 
ENDBRANCH 146 147
END_RES VAL A 158
BEGIN_RES LEU A 161
REMARK  2 active torsions:
REMARK  status: ('A' for Active; 'I' for Inactive)
REMARK   46  A    between atoms: CA   and  CB  
REMARK   47  A    between atoms: CB   and  CG  
ROOT
ATOM    150  CA  LEU A 161     -18.031  -1.858  15.935  1.00 13.31     0.177 C 
ENDROOT
BRANCH 150 151
ATOM    151  CB  LEU A 161     -17.046  -0.706  16.001  1.00 14.13     0.038 C 
BRANCH 151 152
ATOM    152  CG  LEU A 161     -17.515   0.617  15.409  1.00 19.39    -0.020 C 
ATOM    153  CD2 LEU A 161     -16.998   1.771  16.235  1.00 27.75     0.009 C 
ATOM    154  CD1 LEU A 161     -19.019   0.634  15.385  1.00 18.59     0.009 C 
ENDBRANCH 151 152
ENDBRANCH 150 151
END_RES LEU A 161
BEGIN_RES GLN A 168
REMARK  3 active torsions:
REMARK  status: ('A' for Active; 'I' for Inactive)
REMARK   48  A    between atoms: CA   and  CB  
REMARK   49  A    between atoms: CB   and  CG  
REMARK   50  A    between atoms: CG   and  CD  
REMARK       I    between atoms: CD   and  NE2 
ROOT
ATOM    155  CA  GLN A 168     -22.035  -6.020   8.155  1.00 30.94     0.177 C 
ENDROOT
BRANCH 155 156
ATOM    156  CB  GLN A 168     -23.054  -5.218   8.946  1.00 41.76     0.044 C 
BRANCH 156 157
ATOM    157  CG  GLN A 168     -24.318  -5.966   9.274  1.00 61.20     0.105 C 
BRANCH 157 158
ATOM    158  CD  GLN A 168     -24.485  -6.166  10.768  1.00 75.49     0.215 C 
ATOM    159  NE2 GLN A 168     -23.657  -7.040  11.342  1.00 85.00    -0.370 N 
ATOM    160  H06 GLN A 168     -23.721  -7.219  12.334  1.00 85.00     0.159 HD
ATOM    161  H07 GLN A 168     -22.967  -7.524  10.784  1.00 85.00     0.159 HD
ATOM    162  OE1 GLN A 168     -25.352  -5.548  11.402  1.00 73.64    -0.274 OA
ENDBRANCH 157 158
ENDBRANCH 156 157
ENDBRANCH 155 156
END_RES GLN A 168
ENDMDL
MODEL 4
REMARK VINA RESULT:      -6.4      1.841      7.622
REMARK  Name = human_CD1d_LDAO_pred.rank_0
REMARK  11 active torsions:
REMARK  status: ('A' for Active; 'I' for Inactive)
REMARK    1  A    between atoms: N_2  and  C_14
REMARK    2  A    between atoms: C_4  and  C_5
REMARK    3  A    between atoms: C_5  and  C_6
REMARK    4  A    between atoms: C_6  and  C_7
REMARK    5  A    between atoms: C_7  and  C_8
REMARK    6  A    between atoms: C_8  and  C_9
REMARK    7  A    between atoms: C_9  and  C_10
REMARK    8  A    between atoms: C_10  and  C_11
REMARK    9  A    between atoms: C_11  and  C_12
REMARK   10  A    between atoms: C_12  and  C_13
REMARK   11  A    between atoms: C_13  and  C_14
REMARK                            x       y       z     vdW  Elec       q    Type
REMARK                         _______ _______ _______ _____ _____    ______ ____
ROOT
ATOM      1  C   UNL     1      -2.730   6.137  23.200  0.00  0.00    +0.000 C 
ENDROOT
BRANCH   1   2
ATOM      2  C   UNL     1      -1.835   7.380  22.962  0.00  0.00    +0.000 C 
BRANCH   2   3
ATOM      3  C   UNL     1      -0.931   7.731  24.180  0.00  0.00    +0.000 C 
BRANCH   3   4
ATOM      4  C   UNL     1       0.523   7.342  23.931  0.00  0.00    +0.000 C 
BRANCH   4   5
ATOM      5  C   UNL     1       0.946   6.138  24.789  0.00  0.00    +0.000 C 
BRANCH   5   6
ATOM      6  C   UNL     1       0.703   4.812  24.051  0.00  0.00    +0.000 C 
BRANCH   6   8
ATOM      7  C   UNL     1      -0.916   4.488  25.944  0.00  0.00    +0.000 C 
ATOM      8  C   UNL     1      -0.009   3.806  24.924  0.00  0.00    +0.000 C 
ENDBRANCH   6   8
ENDBRANCH   5   6
ENDBRANCH   4   5
ENDBRANCH   3   4
ENDBRANCH   2   3
ENDBRANCH   1   2
BRANCH   1   9
ATOM      9  C   UNL     1      -2.467   5.025  22.168  0.00  0.00    +0.000 C 
BRANCH   9  10
ATOM     10  C   UNL     1      -2.932   3.659  22.687  0.00  0.00    +0.000 C 
BRANCH  10  11
ATOM     11  C   UNL     1      -4.239   3.749  23.500  0.00  0.00    +0.000 C 
BRANCH  11  12
ATOM     12  C   UNL     1      -5.476   3.529  22.627  0.00  0.00    +0.000 C 
BRANCH  12  13
ATOM     13  N   UNL     1      -6.414   4.667  22.792  0.00  0.00    +0.000 N 
ATOM     14  O   UNL     1      -6.214   5.277  23.959  0.00  0.00    +0.000 OA
ATOM     15  C   UNL     1      -6.152   5.628  21.704  0.00  0.00    +0.000 C 
ATOM     16  C   UNL     1      -7.784   4.198  22.701  0.00  0.00    +0.000 C 
ENDBRANCH  12  13
ENDBRANCH  11  12
ENDBRANCH  10  11
ENDBRANCH   9  10
ENDBRANCH   1   9
TORSDOF 11
BEGIN_RES LEU A  10
REMARK  2 active torsions:
REMARK  status: ('A' for Active; 'I' for Inactive)
REMARK    1  A    between atoms: CA   and  CB  
REMARK    2  A    between atoms: CB   and  CG  
ROOT
ATOM      1  CA  LEU A  10     -10.775  -4.871   5.898  1.00 25.14     0.177 C 
ENDROOT
BRANCH   1   2
ATOM      2  CB  LEU A  10     -12.191  -4.387   6.226  1.00 17.87     0.038 C 
BRANCH   2   3
ATOM      3  CG  LEU A  10     -12.395  -2.878   6.075  1.00 24.95    -0.020 C 
ATOM      4  CD2 LEU A  10     -13.671  -2.491   6.742  1.00 26.38     0.009 C 
ATOM      5  CD1 LEU A  10     -12.413  -2.476   4.610  1.00 28.12     0.009 C 
ENDBRANCH   2   3
ENDBRANCH   1   2
END_RES LEU A  10
BEGIN_RES CYS A  12
REMARK  2 active torsions:
REMARK  status: ('A' for Active; 'I' for Inactive)
REMARK    3  A    between atoms: CA   and  CB  
REMARK    4  A    between atoms: CB   and  SG  
ROOT
ATOM      6  CA  CYS A  12      -8.555   0.470   8.750  1.00 23.16     0.185 C 
ENDROOT
BRANCH   6   7
ATOM      7  CB  CYS A  12      -9.828   0.763   9.555  1.00 20.43     0.105 C 
BRANCH   7   8
ATOM      8  SG  CYS A  12     -10.984   1.958   8.817  1.00 24.64    -0.180 SA
ATOM      9  H04 CYS A  12     -12.228   1.465   8.864  1.00 24.64     0.101 HD
ENDBRANCH   7   8
ENDBRANCH   6   7
END_RES CYS A  12
BEGIN_RES GLN A  14
REMARK  3 active torsions:
REMARK  status: ('A' for Active; 'I' for Inactive)
REMARK    5  A    between atoms: CA   and  CB  
REMARK    6  A    between atoms: CB   and  CG  
REMARK    7  A    between atoms: CG   and  CD  
REMARK       I    between atoms: CD   and  NE2 
ROOT
ATOM     10  CA  GLN A  14      -4.645   5.402  11.377  1.00 10.43     0.177 C 
ENDROOT
BRANCH  10  11
ATOM     11  CB  GLN A  14      -5.541   5.549  12.608  1.00 14.45     0.044 C 
BRANCH  11  12
ATOM     12  CG  GLN A  14      -6.614   6.604  12.468  1.00 13.74     0.105 C 
BRANCH  12  13
ATOM     13  CD  GLN A  14      -6.042   7.992  12.306  1.00 16.29     0.215 C 
ATOM     14  NE2 GLN A  14      -6.635   8.772  11.429  1.00  8.57    -0.370 N 
ATOM     15  H06 GLN A  14      -6.297   9.712  11.279  1.00  8.57     0.159 HD
ATOM     16  H07 GLN A  14      -7.429   8.431  10.905  1.00  8.57     0.159 HD
ATOM     17  OE1 GLN A  14      -5.081   8.357  12.964  1.00 23.55    -0.274 OA
ENDBRANCH  12  13
ENDBRANCH  11  12
ENDBRANCH  10  11
END_RES GLN A  14
BEGIN_RES SER A  16
REMARK  2 active torsions:
REMARK  status: ('A' for Active; 'I' for Inactive)
REMARK    8  A    between atoms: CA   and  CB  
REMARK    9  A    between atoms: CB   and  OG  
ROOT
ATOM     18  CA  SER A  16      -1.305  10.019  14.282  1.00  2.34     0.200 C 
ENDROOT
BRANCH  18  19
ATOM     19  CB  SER A  16      -2.242   9.935  15.479  1.00  3.12     0.199 C 
BRANCH  19  20
ATOM     20  OG  SER A  16      -3.470   9.338  15.102  1.00  1.00    -0.398 OA
ATOM     21  H04 SER A  16      -3.873   8.923  15.868  1.00  1.00     0.209 HD
ENDBRANCH  19  20
ENDBRANCH  18  19
END_RES SER A  16
BEGIN_RES LEU A  32
REMARK  2 active torsions:
REMARK  status: ('A' for Active; 'I' for Inactive)
REMARK   10  A    between atoms: CA   and  CB  
REMARK   11  A    between atoms: CB   and  CG  
ROOT
ATOM     22  CA  LEU A  32     -10.272  -4.106   1.587  1.00 16.16     0.177 C 
ENDROOT
BRANCH  22  23
ATOM     23  CB  LEU A  32     -11.613  -3.858   0.880  1.00 12.35     0.038 C 
BRANCH  23  24
ATOM     24  CG  LEU A  32     -12.573  -5.055   1.034  1.00  9.77    -0.020 C 
ATOM     25  CD1 LEU A  32     -12.952  -5.241   2.484  1.00  4.35     0.009 C 
ATOM     26  CD2 LEU A  32     -13.816  -4.857   0.206  1.00 10.60     0.009 C 
ENDBRANCH  23  24
ENDBRANCH  22  23
END_RES LEU A  32
BEGIN_RES HIS A  38
REMARK  2 active torsions:
REMARK  status: ('A' for Active; 'I' for Inactive)
REMARK   12  A    between atoms: CA   and  CB  
REMARK   13  A    between atoms: CB   and  CG  
ROOT
ATOM     27  CA  HIS A  38     -10.959   4.941   1.621  1.00 16.94     0.182 C 
ENDROOT
BRANCH  27  28
ATOM     28  CB  HIS A  38     -11.810   4.840   2.881  1.00 15.47     0.095 C 
BRANCH  28  29
ATOM     29  CG  HIS A  38     -13.272   5.032   2.639  1.00 18.62     0.053 A 
ATOM     30  CD2 HIS A  38     -13.952   5.345   1.510  1.00 15.06     0.116 A 
ATOM     31  NE2 HIS A  38     -15.284   5.368   1.837  1.00 18.12    -0.359 N 
ATOM     32  CE1 HIS A  38     -15.419   5.081   3.117  1.00 14.78     0.207 A 
ATOM     33  H06 HIS A  38     -16.041   5.571   1.199  1.00 18.12     0.166 HD
ATOM     34  ND1 HIS A  38     -14.220   4.875   3.626  1.00 16.58    -0.247 NA
ENDBRANCH  28  29
ENDBRANCH  27  28
END_RES HIS A  38
BEGIN_RES TRP A  63
REMARK  2 active torsions:
REMARK  status: ('A' for Active; 'I' for Inactive)
REMARK   14  A    between atoms: CA   and  CB  
REMARK   15  A    between atoms: CB   and  CG  
ROOT
ATOM     35  CA  TRP A  63     -22.437   6.257   6.543  1.00 27.04     0.181 C 
ENDROOT
BRANCH  35  36
ATOM     36  CB  TRP A  63     -22.360   6.642   5.068  1.00 31.37     0.075 C 
BRANCH  36  37
ATOM     37  CG  TRP A  63     -20.969   6.580   4.473  1.00 34.37    -0.028 A 
ATOM     38  CD2 TRP A  63     -20.257   7.639   3.820  1.00 33.79    -0.002 A 
ATOM     39  CE3 TRP A  63     -20.571   8.956   3.477  1.00 32.99     0.014 A 
ATOM     40  CE2 TRP A  63     -18.975   7.142   3.496  1.00 35.84     0.042 A 
ATOM     41  CZ3 TRP A  63     -19.614   9.725   2.832  1.00 32.93     0.001 A 
ATOM     42  CH2 TRP A  63     -18.348   9.202   2.522  1.00 39.24     0.002 A 
ATOM     43  CZ2 TRP A  63     -18.011   7.915   2.847  1.00 37.99     0.030 A 
ATOM     44  NE1 TRP A  63     -18.918   5.847   3.931  1.00 37.98    -0.365 N 
ATOM     45  H06 TRP A  63     -18.123   5.231   3.839  1.00 37.98     0.165 HD
ATOM     46  CD1 TRP A  63     -20.119   5.519   4.513  1.00 38.16     0.096 A 
ENDBRANCH  36  37
ENDBRANCH  35  36
END_RES TRP A  63
BEGIN_RES LEU A  66
REMARK  2 active torsions:
REMARK  status: ('A' for Active; 'I' for Inactive)
REMARK   16  A    between atoms: CA   and  CB  
REMARK   17  A    between atoms: CB   and  CG  
ROOT
ATOM     47  CA  LEU A  66     -20.004   6.489  11.120  1.00 10.90     0.177 C 
ENDROOT
BRANCH  47  48
ATOM     48  CB  LEU A  66     -19.626   5.453  10.069  1.00 13.57     0.038 C 
BRANCH  48  49
ATOM     49  CG  LEU A  66     -19.559   3.994  10.518  1.00  8.73    -0.020 C 
ATOM     50  CD1 LEU A  66     -18.861   3.151   9.482  1.00 14.23     0.009 C 
ATOM     51  CD2 LEU A  66     -18.812   3.930  11.825  1.00  1.92     0.009 C 
ENDBRANCH  48  49
ENDBRANCH  47  48
END_RES LEU A  66
BEGIN_RES PHE A  70
REMARK  2 active torsions:
REMARK  status: ('A' for Active; 'I' for Inactive)
REMARK   18  A    between atoms: CA   and  CB  
REMARK   19  A    between atoms: CB   and  CG  
ROOT
ATOM     52  CA  PHE A  70     -14.974   9.434  13.165  1.00  8.78     0.180 C 
ENDROOT
BRANCH  52  53
ATOM     53  CB  PHE A  70     -14.707   9.132  11.681  1.00  6.33     0.073 C 
BRANCH  53  54
ATOM     54  CG  PHE A  70     -13.942   7.856  11.458  1.00  3.42    -0.056 A 
ATOM     55  CD1 PHE A  70     -13.719   7.369  10.179  1.00 13.88     0.007 A 
ATOM     56  CE1 PHE A  70     -13.045   6.151   9.981  1.00 12.71     0.001 A 
ATOM     57  CZ  PHE A  70     -12.587   5.416  11.074  1.00  4.21     0.000 A 
ATOM     58  CE2 PHE A  70     -12.800   5.893  12.355  1.00  2.83     0.001 A 
ATOM     59  CD2 PHE A  70     -13.476   7.111  12.542  1.00  1.00     0.007 A 
ENDBRANCH  53  54
ENDBRANCH  52  53
END_RES PHE A  70
BEGIN_RES TYR A  73
REMARK  3 active torsions:
REMARK  status: ('A' for Active; 'I' for Inactive)
REMARK   20  A    between atoms: CA   and  CB  
REMARK   21  A    between atoms: CB   and  CG  
REMARK   22  A    between atoms: CZ   and  OH  
ROOT
ATOM     60  CA  TYR A  73     -13.212  10.166  17.260  1.00 12.17     0.180 C 
ENDROOT
BRANCH  60  61
ATOM     61  CB  TYR A  73     -13.301   8.846  16.517  1.00 12.84     0.073 C 
BRANCH  61  62
ATOM     62  CG  TYR A  73     -13.441   7.674  17.424  1.00 15.89    -0.056 A 
ATOM     63  CD1 TYR A  73     -13.386   7.823  18.792  1.00 16.00     0.010 A 
ATOM     64  CE1 TYR A  73     -13.486   6.723  19.643  1.00 13.55     0.037 A 
ATOM     65  CZ  TYR A  73     -13.642   5.462  19.103  1.00 18.13     0.065 A 
ATOM     66  CE2 TYR A  73     -13.701   5.286  17.741  1.00 15.89     0.037 A 
ATOM     67  CD2 TYR A  73     -13.600   6.393  16.908  1.00 21.86     0.010 A 
BRANCH  65  68
ATOM     68  OH  TYR A  73     -13.748   4.365  19.923  1.00 12.12    -0.361 OA
ATOM     69  H08 TYR A  73     -14.579   3.916  19.751  1.00 12.12     0.217 HD
ENDBRANCH  65  68
ENDBRANCH  61  62
ENDBRANCH  60  61
END_RES TYR A  73
BEGIN_RES PHE A  77
REMARK  2 active torsions:
REMARK  status: ('A' for Active; 'I' for Inactive)
REMARK   23  A    between atoms: CA   and  CB  
REMARK   24  A    between atoms: CB   and  CG  
ROOT
ATOM     70  CA  PHE A  77      -8.400  10.581  20.110  1.00 17.17     0.180 C 
ENDROOT
BRANCH  70  71
ATOM     71  CB  PHE A  77      -8.228   9.750  18.851  1.00 10.44     0.073 C 
BRANCH  71  72
ATOM     72  CG  PHE A  77      -8.848   8.391  18.936  1.00  6.07    -0.056 A 
ATOM     73  CD2 PHE A  77      -8.954   7.745  20.147  1.00  9.61     0.007 A 
ATOM     74  CE2 PHE A  77      -9.530   6.483  20.236  1.00  1.00     0.001 A 
ATOM     75  CZ  PHE A  77     -10.010   5.860  19.096  1.00  1.92     0.000 A 
ATOM     76  CE1 PHE A  77      -9.913   6.493  17.878  1.00  9.25     0.001 A 
ATOM     77  CD1 PHE A  77      -9.331   7.758  17.802  1.00  9.63     0.007 A 
ENDBRANCH  71  72
ENDBRANCH  70  71
END_RES PHE A  77
BEGIN_RES LEU A  96
REMARK  2 active torsions:
REMARK  status: ('A' for Active; 'I' for Inactive)
REMARK   25  A    between atoms: CA   and  CB  
REMARK   26  A    between atoms: CB   and  CG  
ROOT
ATOM     78  CA  LEU A  96       0.717   6.481  17.359  1.00 16.08     0.177 C 
ENDROOT
BRANCH  78  79
ATOM     79  CB  LEU A  96      -0.370   7.101  18.230  1.00 18.83     0.038 C 
BRANCH  79  80
ATOM     80  CG  LEU A  96      -0.162   6.916  19.733  1.00 19.03    -0.020 C 
ATOM     81  CD1 LEU A  96       0.450   5.556  19.977  1.00 28.17     0.009 C 
ATOM     82  CD2 LEU A  96       0.781   7.968  20.268  1.00 22.01     0.009 C 
ENDBRANCH  79  80
ENDBRANCH  78  79
END_RES LEU A  96
BEGIN_RES VAL A  98
REMARK  1 active torsions:
REMARK  status: ('A' for Active; 'I' for Inactive)
REMARK   27  A    between atoms: CA   and  CB  
ROOT
ATOM     83  CA  VAL A  98      -3.928   2.082  14.897  1.00 19.83     0.180 C 
ENDROOT
BRANCH  83  84
ATOM     84  CB  VAL A  98      -5.203   2.807  15.281  1.00 17.87     0.009 C 
ATOM     85  CG2 VAL A  98      -4.922   4.273  15.486  1.00 29.90     0.012 C 
ATOM     86  CG1 VAL A  98      -5.778   2.189  16.538  1.00 14.79     0.012 C 
ENDBRANCH  83  84
END_RES VAL A  98
BEGIN_RES ASN A 112
REMARK  2 active torsions:
REMARK  status: ('A' for Active; 'I' for Inactive)
REMARK   28  A    between atoms: CA   and  CB  
REMARK   29  A    between atoms: CB   and  CG  
REMARK       I    between atoms: CG   and  ND2 
ROOT
ATOM     87  CA  ASN A 112     -11.790  -8.793  14.069  1.00 37.70     0.185 C 
ENDROOT
BRANCH  87  88
ATOM     88  CB  ASN A 112     -12.992  -7.945  14.465  1.00 26.24     0.137 C 
BRANCH  88  89
ATOM     89  CG  ASN A 112     -13.818  -8.567  15.569  1.00 21.77     0.217 C 
ATOM     90  ND2 ASN A 112     -14.968  -9.128  15.197  1.00  9.31    -0.370 N 
ATOM     91  H04 ASN A 112     -15.566  -9.559  15.888  1.00  9.31     0.159 HD
ATOM     92  H05 ASN A 112     -15.242  -9.123  14.225  1.00  9.31     0.159 HD
ATOM     93  OD1 ASN A 112     -13.433  -8.540  16.744  1.00 21.61    -0.274 OA
ENDBRANCH  88  89
ENDBRANCH  87  88
END_RES ASN A 112
BEGIN_RES PHE A 114
REMARK  2 active torsions:
REMARK  status: ('A' for Active; 'I' for Inactive)
REMARK   30  A    between atoms: CA   and  CB  
REMARK   31  A    between atoms: CB   and  CG  
ROOT
ATOM     94  CA  PHE A 114      -7.754  -3.619  17.012  1.00 26.06     0.180 C 
ENDROOT
BRANCH  94  95
ATOM     95  CB  PHE A 114      -8.890  -3.080  17.867  1.00 19.95     0.073 C 
BRANCH  95  96
ATOM     96  CG  PHE A 114      -9.192  -1.639  17.611  1.00 17.65    -0.056 A 
ATOM     97  CD1 PHE A 114     -10.506  -1.194  17.503  1.00 13.01     0.007 A 
ATOM     98  CE1 PHE A 114     -10.787   0.139  17.236  1.00  6.74     0.001 A 
ATOM     99  CZ  PHE A 114      -9.749   1.052  17.075  1.00  6.27     0.000 A 
ATOM    100  CE2 PHE A 114      -8.436   0.621  17.182  1.00 17.36     0.001 A 
ATOM    101  CD2 PHE A 114      -8.161  -0.724  17.450  1.00 18.39     0.007 A 
ENDBRANCH  95  96
ENDBRANCH  94  95
END_RES PHE A 114
BEGIN_RES VAL A 116
REMARK  1 active torsions:
REMARK  status: ('A' for Active; 'I' for Inactive)
REMARK   32  A    between atoms: CA   and  CB  
ROOT
ATOM    102  CA  VAL A 116      -2.467   0.283  18.565  1.00 13.48     0.180 C 
ENDROOT
BRANCH 102 103
ATOM    103  CB  VAL A 116      -3.101   1.238  19.599  1.00 20.86     0.009 C 
ATOM    104  CG1 VAL A 116      -3.024   2.677  19.081  1.00 25.01     0.012 C 
ATOM    105  CG2 VAL A 116      -4.524   0.832  19.905  1.00 25.34     0.012 C 
ENDBRANCH 102 103
END_RES VAL A 116
BEGIN_RES ILE A 123
REMARK  2 active torsions:
REMARK  status: ('A' for Active; 'I' for Inactive)
REMARK   33  A    between atoms: CA   and  CB  
REMARK   34  A    between atoms: CB   and  CG1 
ROOT
ATOM    106  CA  ILE A 123       1.557  -1.626  23.222  1.00 15.07     0.180 C 
ENDROOT
BRANCH 106 107
ATOM    107  CB  ILE A 123       1.697  -0.112  23.461  1.00 14.41     0.013 C 
ATOM    108  CG2 ILE A 123       3.081   0.200  24.003  1.00 18.35     0.012 C 
BRANCH 107 109
ATOM    109  CG1 ILE A 123       1.453   0.654  22.163  1.00 15.23     0.002 C 
ATOM    110  CD1 ILE A 123       0.181   1.467  22.170  1.00 14.67     0.005 C 
ENDBRANCH 107 109
ENDBRANCH 106 107
END_RES ILE A 123
BEGIN_RES LEU A 124
REMARK  2 active torsions:
REMARK  status: ('A' for Active; 'I' for Inactive)
REMARK   35  A    between atoms: CA   and  CB  
REMARK   36  A    between atoms: CB   and  CG  
ROOT
ATOM    111  CA  LEU A 124      -2.057  -2.686  23.524  1.00 11.86     0.177 C 
ENDROOT
BRANCH 111 112
ATOM    112  CB  LEU A 124      -2.698  -1.652  24.429  1.00 14.60     0.038 C 
BRANCH 112 113
ATOM    113  CG  LEU A 124      -2.664  -0.259  23.819  1.00 16.19    -0.020 C 
ATOM    114  CD1 LEU A 124      -4.094   0.147  23.414  1.00 22.07     0.009 C 
ATOM    115  CD2 LEU A 124      -2.064   0.708  24.809  1.00  9.12     0.009 C 
ENDBRANCH 112 113
ENDBRANCH 111 112
END_RES LEU A 124
BEGIN_RES PHE A 126
REMARK  2 active torsions:
REMARK  status: ('A' for Active; 'I' for Inactive)
REMARK   37  A    between atoms: CA   and  CB  
REMARK   38  A    between atoms: CB   and  CG  
ROOT
ATOM    116  CA  PHE A 126      -8.784  -4.792  22.233  1.00 23.15     0.180 C 
ENDROOT
BRANCH 116 117
ATOM    117  CB  PHE A 126      -9.823  -4.011  21.461  1.00 20.65     0.073 C 
BRANCH 117 118
ATOM    118  CG  PHE A 126     -10.952  -3.547  22.296  1.00 23.65    -0.056 A 
ATOM    119  CD2 PHE A 126     -10.772  -2.546  23.233  1.00 36.63     0.007 A 
ATOM    120  CE2 PHE A 126     -11.843  -2.106  24.023  1.00 36.27     0.001 A 
ATOM    121  CZ  PHE A 126     -13.097  -2.678  23.867  1.00 18.06     0.000 A 
ATOM    122  CE1 PHE A 126     -13.281  -3.676  22.931  1.00  5.50     0.001 A 
ATOM    123  CD1 PHE A 126     -12.210  -4.105  22.148  1.00 15.29     0.007 A 
ENDBRANCH 117 118
ENDBRANCH 116 117
END_RES PHE A 126
BEGIN_RES TRP A 131
REMARK  2 active torsions:
REMARK  status: ('A' for Active; 'I' for Inactive)
REMARK   39  A    between atoms: CA   and  CB  
REMARK   40  A    between atoms: CB   and  CG  
ROOT
ATOM    124  CA  TRP A 131      -8.096  -3.335  26.542  1.00 14.52     0.181 C 
ENDROOT
BRANCH 124 125
ATOM    125  CB  TRP A 131      -7.651  -1.877  26.607  1.00 13.06     0.075 C 
BRANCH 125 126
ATOM    126  CG  TRP A 131      -8.062  -1.048  25.411  1.00 16.97    -0.028 A 
ATOM    127  CD2 TRP A 131      -9.145  -0.115  25.352  1.00 11.34    -0.002 A 
ATOM    128  CE2 TRP A 131      -9.162   0.432  24.054  1.00  5.87     0.042 A 
ATOM    129  CE3 TRP A 131     -10.105   0.310  26.278  1.00  3.80     0.014 A 
ATOM    130  CZ2 TRP A 131     -10.101   1.386  23.658  1.00  1.35     0.030 A 
ATOM    131  NE1 TRP A 131      -8.138  -0.142  23.352  1.00 13.90    -0.365 N 
ATOM    132  CH2 TRP A 131     -11.030   1.786  24.587  1.00  1.00     0.002 A 
ATOM    133  CZ3 TRP A 131     -11.038   1.254  25.890  1.00  1.00     0.001 A 
ATOM    134  CD1 TRP A 131      -7.481  -1.030  24.172  1.00 17.22     0.096 A 
ATOM    135  H07 TRP A 131      -7.902   0.054  22.390  1.00 13.90     0.165 HD
ENDBRANCH 125 126
ENDBRANCH 124 125
END_RES TRP A 131
BEGIN_RES LEU A 148
REMARK  2 active torsions:
REMARK  status: ('A' for Active; 'I' for Inactive)
REMARK   41  A    between atoms: CA   and  CB  
REMARK   42  A    between atoms: CB   and  CG  
ROOT
ATOM    136  CA  LEU A 148      -9.018   3.259  29.295  1.00 16.99     0.177 C 
ENDROOT
BRANCH 136 137
ATOM    137  CB  LEU A 148      -8.166   2.574  28.236  1.00  6.39     0.038 C 
BRANCH 137 138
ATOM    138  CG  LEU A 148      -7.548   3.362  27.099  1.00  1.00    -0.020 C 
ATOM    139  CD2 LEU A 148      -8.616   4.060  26.308  1.00  1.00     0.009 C 
ATOM    140  CD1 LEU A 148      -6.775   2.399  26.218  1.00  2.71     0.009 C 
ENDBRANCH 137 138
ENDBRANCH 136 137
END_RES LEU A 148
BEGIN_RES THR A 154
REMARK  2 active torsions:
REMARK  status: ('A' for Active; 'I' for Inactive)
REMARK   43  A    between atoms: CA   and  CB  
REMARK   44  A    between atoms: CB   and  OG1 
ROOT
ATOM    141  CA  THR A 154     -15.990   3.959  24.426  1.00 20.45     0.205 C 
ENDROOT
BRANCH 141 142
ATOM    142  CB  THR A 154     -14.777   4.829  24.694  1.00 16.79     0.146 C 
ATOM    143  CG2 THR A 154     -13.657   4.476  23.734  1.00 20.24     0.042 C 
BRANCH 142 144
ATOM    144  OG1 THR A 154     -15.138   6.202  24.500  1.00 18.84    -0.393 OA
ATOM    145  H06 THR A 154     -14.488   6.768  24.923  1.00 18.84     0.210 HD
ENDBRANCH 142 144
ENDBRANCH 141 142
END_RES THR A 154
BEGIN_RES VAL A 158
REMARK  1 active torsions:
REMARK  status: ('A' for Active; 'I' for Inactive)
REMARK   45  A    between atoms: CA   and  CB  
ROOT
ATOM    146  CA  VAL A 158     -15.487  -0.189  19.892  1.00 15.49     0.180 C 
ENDROOT
BRANCH 146 147
ATOM    147  CB  VAL A 158     -14.291  -0.273  20.822  1.00  6.52     0.009 C 
ATOM    148  CG1 VAL A 158     -13.243  -1.212  20.270  1.00  1.00     0.012 C 
ATOM    149  CG2 VAL A 158     -13.726   1.102  21.003  1.00  5.99     0.012 C 
ENDBRANCH 146 147
END_RES VAL A 158
BEGIN_RES LEU A 161
REMARK  2 active torsions:
REMARK  status: ('A' for Active; 'I' for Inactive)
REMARK   46  A    between atoms: CA   and  CB  
REMARK   47  A    between atoms: CB   and  CG  
ROOT
ATOM    150  CA  LEU A 161     -18.031  -1.858  15.935  1.00 13.31     0.177 C 
ENDROOT
BRANCH 150 151
ATOM    151  CB  LEU A 161     -17.046  -0.706  16.001  1.00 14.13     0.038 C 
BRANCH 151 152
ATOM    152  CG  LEU A 161     -17.429   0.554  15.235  1.00 19.39    -0.020 C 
ATOM    153  CD2 LEU A 161     -18.892   0.864  15.438  1.00 27.75     0.009 C 
ATOM    154  CD1 LEU A 161     -17.146   0.340  13.773  1.00 18.59     0.009 C 
ENDBRANCH 151 152
ENDBRANCH 150 151
END_RES LEU A 161
BEGIN_RES GLN A 168
REMARK  3 active torsions:
REMARK  status: ('A' for Active; 'I' for Inactive)
REMARK   48  A    between atoms: CA   and  CB  
REMARK   49  A    between atoms: CB   and  CG  
REMARK   50  A    between atoms: CG   and  CD  
REMARK       I    between atoms: CD   and  NE2 
ROOT
ATOM    155  CA  GLN A 168     -22.035  -6.020   8.155  1.00 30.94     0.177 C 
ENDROOT
BRANCH 155 156
ATOM    156  CB  GLN A 168     -23.054  -5.218   8.946  1.00 41.76     0.044 C 
BRANCH 156 157
ATOM    157  CG  GLN A 168     -24.432  -5.822   8.981  1.00 61.20     0.105 C 
BRANCH 157 158
ATOM    158  CD  GLN A 168     -24.762  -6.399  10.344  1.00 75.49     0.215 C 
ATOM    159  NE2 GLN A 168     -23.929  -6.080  11.337  1.00 85.00    -0.370 N 
ATOM    160  H06 GLN A 168     -24.094  -6.436  12.268  1.00 85.00     0.159 HD
ATOM    161  H07 GLN A 168     -23.133  -5.483  11.157  1.00 85.00     0.159 HD
ATOM    162  OE1 GLN A 168     -25.750  -7.129  10.507  1.00 73.64    -0.274 OA
ENDBRANCH 157 158
ENDBRANCH 156 157
ENDBRANCH 155 156
END_RES GLN A 168
ENDMDL
MODEL 5
REMARK VINA RESULT:      -6.4      2.060      7.047
REMARK  Name = human_CD1d_LDAO_pred.rank_0
REMARK  11 active torsions:
REMARK  status: ('A' for Active; 'I' for Inactive)
REMARK    1  A    between atoms: N_2  and  C_14
REMARK    2  A    between atoms: C_4  and  C_5
REMARK    3  A    between atoms: C_5  and  C_6
REMARK    4  A    between atoms: C_6  and  C_7
REMARK    5  A    between atoms: C_7  and  C_8
REMARK    6  A    between atoms: C_8  and  C_9
REMARK    7  A    between atoms: C_9  and  C_10
REMARK    8  A    between atoms: C_10  and  C_11
REMARK    9  A    between atoms: C_11  and  C_12
REMARK   10  A    between atoms: C_12  and  C_13
REMARK   11  A    between atoms: C_13  and  C_14
REMARK                            x       y       z     vdW  Elec       q    Type
REMARK                         _______ _______ _______ _____ _____    ______ ____
ROOT
ATOM      1  C   UNL     1      -3.397   3.923  23.165  0.00  0.00    +0.000 C 
ENDROOT
BRANCH   1   2
ATOM      2  C   UNL     1      -3.437   4.963  22.016  0.00  0.00    +0.000 C 
BRANCH   2   3
ATOM      3  C   UNL     1      -4.824   5.051  21.314  0.00  0.00    +0.000 C 
BRANCH   3   4
ATOM      4  C   UNL     1      -4.894   6.235  20.354  0.00  0.00    +0.000 C 
BRANCH   4   5
ATOM      5  C   UNL     1      -5.298   5.797  18.937  0.00  0.00    +0.000 C 
BRANCH   5   6
ATOM      6  C   UNL     1      -5.272   6.980  17.957  0.00  0.00    +0.000 C 
BRANCH   6   8
ATOM      7  C   UNL     1      -4.788   9.430  18.231  0.00  0.00    +0.000 C 
ATOM      8  C   UNL     1      -4.239   8.011  18.348  0.00  0.00    +0.000 C 
ENDBRANCH   6   8
ENDBRANCH   5   6
ENDBRANCH   4   5
ENDBRANCH   3   4
ENDBRANCH   2   3
ENDBRANCH   1   2
BRANCH   1   9
ATOM      9  C   UNL     1      -3.959   4.491  24.482  0.00  0.00    +0.000 C 
BRANCH   9  10
ATOM     10  C   UNL     1      -3.028   4.190  25.662  0.00  0.00    +0.000 C 
BRANCH  10  11
ATOM     11  C   UNL     1      -1.540   4.395  25.310  0.00  0.00    +0.000 C 
BRANCH  11  12
ATOM     12  C   UNL     1      -1.029   5.768  25.752  0.00  0.00    +0.000 C 
BRANCH  12  13
ATOM     13  N   UNL     1      -0.542   6.524  24.571  0.00  0.00    +0.000 N 
ATOM     14  O   UNL     1      -0.313   5.704  23.548  0.00  0.00    +0.000 OA
ATOM     15  C   UNL     1      -1.595   7.482  24.184  0.00  0.00    +0.000 C 
ATOM     16  C   UNL     1       0.668   7.248  24.912  0.00  0.00    +0.000 C 
ENDBRANCH  12  13
ENDBRANCH  11  12
ENDBRANCH  10  11
ENDBRANCH   9  10
ENDBRANCH   1   9
TORSDOF 11
BEGIN_RES LEU A  10
REMARK  2 active torsions:
REMARK  status: ('A' for Active; 'I' for Inactive)
REMARK    1  A    between atoms: CA   and  CB  
REMARK    2  A    between atoms: CB   and  CG  
ROOT
ATOM      1  CA  LEU A  10     -10.775  -4.871   5.898  1.00 25.14     0.177 C 
ENDROOT
BRANCH   1   2
ATOM      2  CB  LEU A  10     -12.191  -4.387   6.226  1.00 17.87     0.038 C 
BRANCH   2   3
ATOM      3  CG  LEU A  10     -12.391  -2.876   6.088  1.00 24.95    -0.020 C 
ATOM      4  CD2 LEU A  10     -13.677  -2.495   6.740  1.00 26.38     0.009 C 
ATOM      5  CD1 LEU A  10     -12.387  -2.459   4.628  1.00 28.12     0.009 C 
ENDBRANCH   2   3
ENDBRANCH   1   2
END_RES LEU A  10
BEGIN_RES CYS A  12
REMARK  2 active torsions:
REMARK  status: ('A' for Active; 'I' for Inactive)
REMARK    3  A    between atoms: CA   and  CB  
REMARK    4  A    between atoms: CB   and  SG  
ROOT
ATOM      6  CA  CYS A  12      -8.555   0.470   8.750  1.00 23.16     0.185 C 
ENDROOT
BRANCH   6   7
ATOM      7  CB  CYS A  12      -9.828   0.763   9.555  1.00 20.43     0.105 C 
BRANCH   7   8
ATOM      8  SG  CYS A  12     -10.939   2.026   8.863  1.00 24.64    -0.180 SA
ATOM      9  H04 CYS A  12     -11.982   1.429   8.271  1.00 24.64     0.101 HD
ENDBRANCH   7   8
ENDBRANCH   6   7
END_RES CYS A  12
BEGIN_RES GLN A  14
REMARK  3 active torsions:
REMARK  status: ('A' for Active; 'I' for Inactive)
REMARK    5  A    between atoms: CA   and  CB  
REMARK    6  A    between atoms: CB   and  CG  
REMARK    7  A    between atoms: CG   and  CD  
REMARK       I    between atoms: CD   and  NE2 
ROOT
ATOM     10  CA  GLN A  14      -4.645   5.402  11.377  1.00 10.43     0.177 C 
ENDROOT
BRANCH  10  11
ATOM     11  CB  GLN A  14      -5.541   5.549  12.608  1.00 14.45     0.044 C 
BRANCH  11  12
ATOM     12  CG  GLN A  14      -6.590   6.630  12.482  1.00 13.74     0.105 C 
BRANCH  12  13
ATOM     13  CD  GLN A  14      -6.093   7.975  12.956  1.00 16.29     0.215 C 
ATOM     14  NE2 GLN A  14      -5.806   8.856  12.022  1.00  8.57    -0.370 N 
ATOM     15  H06 GLN A  14      -5.471   9.773  12.279  1.00  8.57     0.159 HD
ATOM     16  H07 GLN A  14      -5.922   8.615  11.048  1.00  8.57     0.159 HD
ATOM     17  OE1 GLN A  14      -5.971   8.218  14.146  1.00 23.55    -0.274 OA
ENDBRANCH  12  13
ENDBRANCH  11  12
ENDBRANCH  10  11
END_RES GLN A  14
BEGIN_RES SER A  16
REMARK  2 active torsions:
REMARK  status: ('A' for Active; 'I' for Inactive)
REMARK    8  A    between atoms: CA   and  CB  
REMARK    9  A    between atoms: CB   and  OG  
ROOT
ATOM     18  CA  SER A  16      -1.305  10.019  14.282  1.00  2.34     0.200 C 
ENDROOT
BRANCH  18  19
ATOM     19  CB  SER A  16      -2.242   9.935  15.479  1.00  3.12     0.199 C 
BRANCH  19  20
ATOM     20  OG  SER A  16      -3.471   9.340  15.102  1.00  1.00    -0.398 OA
ATOM     21  H04 SER A  16      -3.686   8.633  15.715  1.00  1.00     0.209 HD
ENDBRANCH  19  20
ENDBRANCH  18  19
END_RES SER A  16
BEGIN_RES LEU A  32
REMARK  2 active torsions:
REMARK  status: ('A' for Active; 'I' for Inactive)
REMARK   10  A    between atoms: CA   and  CB  
REMARK   11  A    between atoms: CB   and  CG  
ROOT
ATOM     22  CA  LEU A  32     -10.272  -4.106   1.587  1.00 16.16     0.177 C 
ENDROOT
BRANCH  22  23
ATOM     23  CB  LEU A  32     -11.613  -3.858   0.880  1.00 12.35     0.038 C 
BRANCH  23  24
ATOM     24  CG  LEU A  32     -12.576  -5.052   1.040  1.00  9.77    -0.020 C 
ATOM     25  CD1 LEU A  32     -13.015  -5.184   2.479  1.00  4.35     0.009 C 
ATOM     26  CD2 LEU A  32     -13.783  -4.891   0.153  1.00 10.60     0.009 C 
ENDBRANCH  23  24
ENDBRANCH  22  23
END_RES LEU A  32
BEGIN_RES HIS A  38
REMARK  2 active torsions:
REMARK  status: ('A' for Active; 'I' for Inactive)
REMARK   12  A    between atoms: CA   and  CB  
REMARK   13  A    between atoms: CB   and  CG  
ROOT
ATOM     27  CA  HIS A  38     -10.959   4.941   1.621  1.00 16.94     0.182 C 
ENDROOT
BRANCH  27  28
ATOM     28  CB  HIS A  38     -11.810   4.840   2.881  1.00 15.47     0.095 C 
BRANCH  28  29
ATOM     29  CG  HIS A  38     -12.991   3.935   2.741  1.00 18.62     0.053 A 
ATOM     30  CD2 HIS A  38     -14.153   4.090   2.062  1.00 15.06     0.116 A 
ATOM     31  NE2 HIS A  38     -14.881   2.942   2.243  1.00 18.12    -0.359 N 
ATOM     32  CE1 HIS A  38     -14.193   2.112   3.005  1.00 14.78     0.207 A 
ATOM     33  H06 HIS A  38     -15.796   2.760   1.856  1.00 18.12     0.166 HD
ATOM     34  ND1 HIS A  38     -13.050   2.687   3.320  1.00 16.58    -0.247 NA
ENDBRANCH  28  29
ENDBRANCH  27  28
END_RES HIS A  38
BEGIN_RES TRP A  63
REMARK  2 active torsions:
REMARK  status: ('A' for Active; 'I' for Inactive)
REMARK   14  A    between atoms: CA   and  CB  
REMARK   15  A    between atoms: CB   and  CG  
ROOT
ATOM     35  CA  TRP A  63     -22.437   6.257   6.543  1.00 27.04     0.181 C 
ENDROOT
BRANCH  35  36
ATOM     36  CB  TRP A  63     -22.360   6.642   5.068  1.00 31.37     0.075 C 
BRANCH  36  37
ATOM     37  CG  TRP A  63     -20.953   6.788   4.528  1.00 34.37    -0.028 A 
ATOM     38  CD2 TRP A  63     -19.886   5.833   4.617  1.00 33.79    -0.002 A 
ATOM     39  CE3 TRP A  63     -19.750   4.580   5.218  1.00 32.99     0.014 A 
ATOM     40  CE2 TRP A  63     -18.786   6.370   3.913  1.00 35.84     0.042 A 
ATOM     41  CZ3 TRP A  63     -18.540   3.911   5.102  1.00 32.93     0.001 A 
ATOM     42  CH2 TRP A  63     -17.464   4.472   4.396  1.00 39.24     0.002 A 
ATOM     43  CZ2 TRP A  63     -17.568   5.698   3.795  1.00 37.99     0.030 A 
ATOM     44  NE1 TRP A  63     -19.170   7.589   3.426  1.00 37.98    -0.365 N 
ATOM     45  H06 TRP A  63     -18.592   8.211   2.879  1.00 37.98     0.165 HD
ATOM     46  CD1 TRP A  63     -20.469   7.831   3.802  1.00 38.16     0.096 A 
ENDBRANCH  36  37
ENDBRANCH  35  36
END_RES TRP A  63
BEGIN_RES LEU A  66
REMARK  2 active torsions:
REMARK  status: ('A' for Active; 'I' for Inactive)
REMARK   16  A    between atoms: CA   and  CB  
REMARK   17  A    between atoms: CB   and  CG  
ROOT
ATOM     47  CA  LEU A  66     -20.004   6.489  11.120  1.00 10.90     0.177 C 
ENDROOT
BRANCH  47  48
ATOM     48  CB  LEU A  66     -19.626   5.453  10.069  1.00 13.57     0.038 C 
BRANCH  48  49
ATOM     49  CG  LEU A  66     -19.292   4.046  10.562  1.00  8.73    -0.020 C 
ATOM     50  CD1 LEU A  66     -19.267   4.003  12.068  1.00 14.23     0.009 C 
ATOM     51  CD2 LEU A  66     -20.335   3.094  10.035  1.00  1.92     0.009 C 
ENDBRANCH  48  49
ENDBRANCH  47  48
END_RES LEU A  66
BEGIN_RES PHE A  70
REMARK  2 active torsions:
REMARK  status: ('A' for Active; 'I' for Inactive)
REMARK   18  A    between atoms: CA   and  CB  
REMARK   19  A    between atoms: CB   and  CG  
ROOT
ATOM     52  CA  PHE A  70     -14.974   9.434  13.165  1.00  8.78     0.180 C 
ENDROOT
BRANCH  52  53
ATOM     53  CB  PHE A  70     -14.707   9.132  11.681  1.00  6.33     0.073 C 
BRANCH  53  54
ATOM     54  CG  PHE A  70     -13.934   7.860  11.459  1.00  3.42    -0.056 A 
ATOM     55  CD1 PHE A  70     -13.693   7.384  10.179  1.00 13.88     0.007 A 
ATOM     56  CE1 PHE A  70     -13.012   6.170   9.980  1.00 12.71     0.001 A 
ATOM     57  CZ  PHE A  70     -12.566   5.428  11.074  1.00  4.21     0.000 A 
ATOM     58  CE2 PHE A  70     -12.799   5.894  12.355  1.00  2.83     0.001 A 
ATOM     59  CD2 PHE A  70     -13.481   7.108  12.543  1.00  1.00     0.007 A 
ENDBRANCH  53  54
ENDBRANCH  52  53
END_RES PHE A  70
BEGIN_RES TYR A  73
REMARK  3 active torsions:
REMARK  status: ('A' for Active; 'I' for Inactive)
REMARK   20  A    between atoms: CA   and  CB  
REMARK   21  A    between atoms: CB   and  CG  
REMARK   22  A    between atoms: CZ   and  OH  
ROOT
ATOM     60  CA  TYR A  73     -13.212  10.166  17.260  1.00 12.17     0.180 C 
ENDROOT
BRANCH  60  61
ATOM     61  CB  TYR A  73     -13.301   8.846  16.517  1.00 12.84     0.073 C 
BRANCH  61  62
ATOM     62  CG  TYR A  73     -13.112   7.664  17.402  1.00 15.89    -0.056 A 
ATOM     63  CD1 TYR A  73     -13.241   6.382  16.915  1.00 16.00     0.010 A 
ATOM     64  CE1 TYR A  73     -13.095   5.275  17.749  1.00 13.55     0.037 A 
ATOM     65  CZ  TYR A  73     -12.817   5.467  19.087  1.00 18.13     0.065 A 
ATOM     66  CE2 TYR A  73     -12.681   6.737  19.599  1.00 15.89     0.037 A 
ATOM     67  CD2 TYR A  73     -12.829   7.829  18.754  1.00 21.86     0.010 A 
BRANCH  65  68
ATOM     68  OH  TYR A  73     -12.663   4.391  19.926  1.00 12.12    -0.361 OA
ATOM     69  H08 TYR A  73     -11.970   4.577  20.564  1.00 12.12     0.217 HD
ENDBRANCH  65  68
ENDBRANCH  61  62
ENDBRANCH  60  61
END_RES TYR A  73
BEGIN_RES PHE A  77
REMARK  2 active torsions:
REMARK  status: ('A' for Active; 'I' for Inactive)
REMARK   23  A    between atoms: CA   and  CB  
REMARK   24  A    between atoms: CB   and  CG  
ROOT
ATOM     70  CA  PHE A  77      -8.400  10.581  20.110  1.00 17.17     0.180 C 
ENDROOT
BRANCH  70  71
ATOM     71  CB  PHE A  77      -8.228   9.750  18.851  1.00 10.44     0.073 C 
BRANCH  71  72
ATOM     72  CG  PHE A  77      -8.541   8.299  19.039  1.00  6.07    -0.056 A 
ATOM     73  CD2 PHE A  77      -8.996   7.539  17.985  1.00  9.61     0.007 A 
ATOM     74  CE2 PHE A  77      -9.288   6.190  18.150  1.00  1.00     0.001 A 
ATOM     75  CZ  PHE A  77      -9.120   5.593  19.388  1.00  1.92     0.000 A 
ATOM     76  CE1 PHE A  77      -8.664   6.338  20.452  1.00  9.25     0.001 A 
ATOM     77  CD1 PHE A  77      -8.377   7.691  20.273  1.00  9.63     0.007 A 
ENDBRANCH  71  72
ENDBRANCH  70  71
END_RES PHE A  77
BEGIN_RES LEU A  96
REMARK  2 active torsions:
REMARK  status: ('A' for Active; 'I' for Inactive)
REMARK   25  A    between atoms: CA   and  CB  
REMARK   26  A    between atoms: CB   and  CG  
ROOT
ATOM     78  CA  LEU A  96       0.717   6.481  17.359  1.00 16.08     0.177 C 
ENDROOT
BRANCH  78  79
ATOM     79  CB  LEU A  96      -0.370   7.101  18.230  1.00 18.83     0.038 C 
BRANCH  79  80
ATOM     80  CG  LEU A  96      -0.228   6.812  19.724  1.00 19.03    -0.020 C 
ATOM     81  CD1 LEU A  96      -1.336   7.523  20.466  1.00 28.17     0.009 C 
ATOM     82  CD2 LEU A  96      -0.350   5.329  19.989  1.00 22.01     0.009 C 
ENDBRANCH  79  80
ENDBRANCH  78  79
END_RES LEU A  96
BEGIN_RES VAL A  98
REMARK  1 active torsions:
REMARK  status: ('A' for Active; 'I' for Inactive)
REMARK   27  A    between atoms: CA   and  CB  
ROOT
ATOM     83  CA  VAL A  98      -3.928   2.082  14.897  1.00 19.83     0.180 C 
ENDROOT
BRANCH  83  84
ATOM     84  CB  VAL A  98      -5.203   2.807  15.281  1.00 17.87     0.009 C 
ATOM     85  CG2 VAL A  98      -4.932   4.281  15.437  1.00 29.90     0.012 C 
ATOM     86  CG1 VAL A  98      -5.751   2.222  16.565  1.00 14.79     0.012 C 
ENDBRANCH  83  84
END_RES VAL A  98
BEGIN_RES ASN A 112
REMARK  2 active torsions:
REMARK  status: ('A' for Active; 'I' for Inactive)
REMARK   28  A    between atoms: CA   and  CB  
REMARK   29  A    between atoms: CB   and  CG  
REMARK       I    between atoms: CG   and  ND2 
ROOT
ATOM     87  CA  ASN A 112     -11.790  -8.793  14.069  1.00 37.70     0.185 C 
ENDROOT
BRANCH  87  88
ATOM     88  CB  ASN A 112     -12.992  -7.945  14.465  1.00 26.24     0.137 C 
BRANCH  88  89
ATOM     89  CG  ASN A 112     -13.938  -8.659  15.404  1.00 21.77     0.217 C 
ATOM     90  ND2 ASN A 112     -13.636  -8.598  16.701  1.00  9.31    -0.370 N 
ATOM     91  H04 ASN A 112     -14.228  -9.057  17.379  1.00  9.31     0.159 HD
ATOM     92  H05 ASN A 112     -12.816  -8.093  17.006  1.00  9.31     0.159 HD
ATOM     93  OD1 ASN A 112     -14.926  -9.265  14.973  1.00 21.61    -0.274 OA
ENDBRANCH  88  89
ENDBRANCH  87  88
END_RES ASN A 112
BEGIN_RES PHE A 114
REMARK  2 active torsions:
REMARK  status: ('A' for Active; 'I' for Inactive)
REMARK   30  A    between atoms: CA   and  CB  
REMARK   31  A    between atoms: CB   and  CG  
ROOT
ATOM     94  CA  PHE A 114      -7.754  -3.619  17.012  1.00 26.06     0.180 C 
ENDROOT
BRANCH  94  95
ATOM     95  CB  PHE A 114      -8.890  -3.080  17.867  1.00 19.95     0.073 C 
BRANCH  95  96
ATOM     96  CG  PHE A 114      -9.218  -1.650  17.583  1.00 17.65    -0.056 A 
ATOM     97  CD1 PHE A 114      -8.210  -0.698  17.459  1.00 13.01     0.007 A 
ATOM     98  CE1 PHE A 114      -8.515   0.636  17.225  1.00  6.74     0.001 A 
ATOM     99  CZ  PHE A 114      -9.842   1.037  17.106  1.00  6.27     0.000 A 
ATOM    100  CE2 PHE A 114     -10.854   0.099  17.226  1.00 17.36     0.001 A 
ATOM    101  CD2 PHE A 114     -10.540  -1.243  17.464  1.00 18.39     0.007 A 
ENDBRANCH  95  96
ENDBRANCH  94  95
END_RES PHE A 114
BEGIN_RES VAL A 116
REMARK  1 active torsions:
REMARK  status: ('A' for Active; 'I' for Inactive)
REMARK   32  A    between atoms: CA   and  CB  
ROOT
ATOM    102  CA  VAL A 116      -2.467   0.283  18.565  1.00 13.48     0.180 C 
ENDROOT
BRANCH 102 103
ATOM    103  CB  VAL A 116      -3.101   1.238  19.599  1.00 20.86     0.009 C 
ATOM    104  CG1 VAL A 116      -3.010   2.679  19.088  1.00 25.01     0.012 C 
ATOM    105  CG2 VAL A 116      -4.529   0.841  19.894  1.00 25.34     0.012 C 
ENDBRANCH 102 103
END_RES VAL A 116
BEGIN_RES ILE A 123
REMARK  2 active torsions:
REMARK  status: ('A' for Active; 'I' for Inactive)
REMARK   33  A    between atoms: CA   and  CB  
REMARK   34  A    between atoms: CB   and  CG1 
ROOT
ATOM    106  CA  ILE A 123       1.557  -1.626  23.222  1.00 15.07     0.180 C 
ENDROOT
BRANCH 106 107
ATOM    107  CB  ILE A 123       1.697  -0.112  23.461  1.00 14.41     0.013 C 
ATOM    108  CG2 ILE A 123       3.105   0.209  23.932  1.00 18.35     0.012 C 
BRANCH 107 109
ATOM    109  CG1 ILE A 123       1.380   0.658  22.182  1.00 15.23     0.002 C 
ATOM    110  CD1 ILE A 123       0.223   1.617  22.323  1.00 14.67     0.005 C 
ENDBRANCH 107 109
ENDBRANCH 106 107
END_RES ILE A 123
BEGIN_RES LEU A 124
REMARK  2 active torsions:
REMARK  status: ('A' for Active; 'I' for Inactive)
REMARK   35  A    between atoms: CA   and  CB  
REMARK   36  A    between atoms: CB   and  CG  
ROOT
ATOM    111  CA  LEU A 124      -2.057  -2.686  23.524  1.00 11.86     0.177 C 
ENDROOT
BRANCH 111 112
ATOM    112  CB  LEU A 124      -2.698  -1.652  24.429  1.00 14.60     0.038 C 
BRANCH 112 113
ATOM    113  CG  LEU A 124      -2.620  -0.251  23.841  1.00 16.19    -0.020 C 
ATOM    114  CD1 LEU A 124      -4.038   0.209  23.452  1.00 22.07     0.009 C 
ATOM    115  CD2 LEU A 124      -1.982   0.679  24.841  1.00  9.12     0.009 C 
ENDBRANCH 112 113
ENDBRANCH 111 112
END_RES LEU A 124
BEGIN_RES PHE A 126
REMARK  2 active torsions:
REMARK  status: ('A' for Active; 'I' for Inactive)
REMARK   37  A    between atoms: CA   and  CB  
REMARK   38  A    between atoms: CB   and  CG  
ROOT
ATOM    116  CA  PHE A 126      -8.784  -4.792  22.233  1.00 23.15     0.180 C 
ENDROOT
BRANCH 116 117
ATOM    117  CB  PHE A 126      -9.823  -4.011  21.461  1.00 20.65     0.073 C 
BRANCH 117 118
ATOM    118  CG  PHE A 126     -10.953  -3.548  22.295  1.00 23.65    -0.056 A 
ATOM    119  CD2 PHE A 126     -12.208  -4.115  22.161  1.00 36.63     0.007 A 
ATOM    120  CE2 PHE A 126     -13.278  -3.676  22.953  1.00 36.27     0.001 A 
ATOM    121  CZ  PHE A 126     -13.081  -2.665  23.882  1.00 18.06     0.000 A 
ATOM    122  CE1 PHE A 126     -11.830  -2.099  24.020  1.00  5.50     0.001 A 
ATOM    123  CD1 PHE A 126     -10.770  -2.543  23.229  1.00 15.29     0.007 A 
ENDBRANCH 117 118
ENDBRANCH 116 117
END_RES PHE A 126
BEGIN_RES TRP A 131
REMARK  2 active torsions:
REMARK  status: ('A' for Active; 'I' for Inactive)
REMARK   39  A    between atoms: CA   and  CB  
REMARK   40  A    between atoms: CB   and  CG  
ROOT
ATOM    124  CA  TRP A 131      -8.096  -3.335  26.542  1.00 14.52     0.181 C 
ENDROOT
BRANCH 124 125
ATOM    125  CB  TRP A 131      -7.651  -1.877  26.607  1.00 13.06     0.075 C 
BRANCH 125 126
ATOM    126  CG  TRP A 131      -8.053  -1.051  25.406  1.00 16.97    -0.028 A 
ATOM    127  CD2 TRP A 131      -9.130  -0.112  25.339  1.00 11.34    -0.002 A 
ATOM    128  CE2 TRP A 131      -9.139   0.430  24.039  1.00  5.87     0.042 A 
ATOM    129  CE3 TRP A 131     -10.091   0.322  26.259  1.00  3.80     0.014 A 
ATOM    130  CZ2 TRP A 131     -10.071   1.388  23.635  1.00  1.35     0.030 A 
ATOM    131  NE1 TRP A 131      -8.116  -0.153  23.343  1.00 13.90    -0.365 N 
ATOM    132  CH2 TRP A 131     -11.002   1.796  24.558  1.00  1.00     0.002 A 
ATOM    133  CZ3 TRP A 131     -11.018   1.269  25.864  1.00  1.00     0.001 A 
ATOM    134  CD1 TRP A 131      -7.467  -1.040  24.170  1.00 17.22     0.096 A 
ATOM    135  H07 TRP A 131      -7.875   0.038  22.381  1.00 13.90     0.165 HD
ENDBRANCH 125 126
ENDBRANCH 124 125
END_RES TRP A 131
BEGIN_RES LEU A 148
REMARK  2 active torsions:
REMARK  status: ('A' for Active; 'I' for Inactive)
REMARK   41  A    between atoms: CA   and  CB  
REMARK   42  A    between atoms: CB   and  CG  
ROOT
ATOM    136  CA  LEU A 148      -9.018   3.259  29.295  1.00 16.99     0.177 C 
ENDROOT
BRANCH 136 137
ATOM    137  CB  LEU A 148      -8.166   2.574  28.236  1.00  6.39     0.038 C 
BRANCH 137 138
ATOM    138  CG  LEU A 148      -7.507   3.369  27.127  1.00  1.00    -0.020 C 
ATOM    139  CD2 LEU A 148      -8.548   4.045  26.282  1.00  1.00     0.009 C 
ATOM    140  CD1 LEU A 148      -6.675   2.417  26.289  1.00  2.71     0.009 C 
ENDBRANCH 137 138
ENDBRANCH 136 137
END_RES LEU A 148
BEGIN_RES THR A 154
REMARK  2 active torsions:
REMARK  status: ('A' for Active; 'I' for Inactive)
REMARK   43  A    between atoms: CA   and  CB  
REMARK   44  A    between atoms: CB   and  OG1 
ROOT
ATOM    141  CA  THR A 154     -15.990   3.959  24.426  1.00 20.45     0.205 C 
ENDROOT
BRANCH 141 142
ATOM    142  CB  THR A 154     -14.777   4.829  24.694  1.00 16.79     0.146 C 
ATOM    143  CG2 THR A 154     -13.681   4.522  23.692  1.00 20.24     0.042 C 
BRANCH 142 144
ATOM    144  OG1 THR A 154     -15.154   6.205  24.561  1.00 18.84    -0.393 OA
ATOM    145  H06 THR A 154     -15.357   6.395  23.642  1.00 18.84     0.210 HD
ENDBRANCH 142 144
ENDBRANCH 141 142
END_RES THR A 154
BEGIN_RES VAL A 158
REMARK  1 active torsions:
REMARK  status: ('A' for Active; 'I' for Inactive)
REMARK   45  A    between atoms: CA   and  CB  
ROOT
ATOM    146  CA  VAL A 158     -15.487  -0.189  19.892  1.00 15.49     0.180 C 
ENDROOT
BRANCH 146 147
ATOM    147  CB  VAL A 158     -14.291  -0.273  20.822  1.00  6.52     0.009 C 
ATOM    148  CG1 VAL A 158     -13.251  -1.225  20.278  1.00  1.00     0.012 C 
ATOM    149  CG2 VAL A 158     -13.716   1.099  20.990  1.00  5.99     0.012 C 
ENDBRANCH 146 147
END_RES VAL A 158
BEGIN_RES LEU A 161
REMARK  2 active torsions:
REMARK  status: ('A' for Active; 'I' for Inactive)
REMARK   46  A    between atoms: CA   and  CB  
REMARK   47  A    between atoms: CB   and  CG  
ROOT
ATOM    150  CA  LEU A 161     -18.031  -1.858  15.935  1.00 13.31     0.177 C 
ENDROOT
BRANCH 150 151
ATOM    151  CB  LEU A 161     -17.046  -0.706  16.001  1.00 14.13     0.038 C 
BRANCH 151 152
ATOM    152  CG  LEU A 161     -17.531   0.629  15.451  1.00 19.39    -0.020 C 
ATOM    153  CD2 LEU A 161     -17.369   0.666  13.950  1.00 27.75     0.009 C 
ATOM    154  CD1 LEU A 161     -16.732   1.736  16.083  1.00 18.59     0.009 C 
ENDBRANCH 151 152
ENDBRANCH 150 151
END_RES LEU A 161
BEGIN_RES GLN A 168
REMARK  3 active torsions:
REMARK  status: ('A' for Active; 'I' for Inactive)
REMARK   48  A    between atoms: CA   and  CB  
REMARK   49  A    between atoms: CB   and  CG  
REMARK   50  A    between atoms: CG   and  CD  
REMARK       I    between atoms: CD   and  NE2 
ROOT
ATOM    155  CA  GLN A 168     -22.035  -6.020   8.155  1.00 30.94     0.177 C 
ENDROOT
BRANCH 155 156
ATOM    156  CB  GLN A 168     -23.054  -5.218   8.946  1.00 41.76     0.044 C 
BRANCH 156 157
ATOM    157  CG  GLN A 168     -24.481  -5.430   8.520  1.00 61.20     0.105 C 
BRANCH 157 158
ATOM    158  CD  GLN A 168     -24.982  -4.302   7.639  1.00 75.49     0.215 C 
ATOM    159  NE2 GLN A 168     -24.829  -4.468   6.324  1.00 85.00    -0.370 N 
ATOM    160  H06 GLN A 168     -25.140  -3.750   5.685  1.00 85.00     0.159 HD
ATOM    161  H07 GLN A 168     -24.401  -5.311   5.968  1.00 85.00     0.159 HD
ATOM    162  OE1 GLN A 168     -25.496  -3.287   8.130  1.00 73.64    -0.274 OA
ENDBRANCH 157 158
ENDBRANCH 156 157
ENDBRANCH 155 156
END_RES GLN A 168
ENDMDL
MODEL 6
REMARK VINA RESULT:      -6.4      1.438      2.788
REMARK  Name = human_CD1d_LDAO_pred.rank_0
REMARK  11 active torsions:
REMARK  status: ('A' for Active; 'I' for Inactive)
REMARK    1  A    between atoms: N_2  and  C_14
REMARK    2  A    between atoms: C_4  and  C_5
REMARK    3  A    between atoms: C_5  and  C_6
REMARK    4  A    between atoms: C_6  and  C_7
REMARK    5  A    between atoms: C_7  and  C_8
REMARK    6  A    between atoms: C_8  and  C_9
REMARK    7  A    between atoms: C_9  and  C_10
REMARK    8  A    between atoms: C_10  and  C_11
REMARK    9  A    between atoms: C_11  and  C_12
REMARK   10  A    between atoms: C_12  and  C_13
REMARK   11  A    between atoms: C_13  and  C_14
REMARK                            x       y       z     vdW  Elec       q    Type
REMARK                         _______ _______ _______ _____ _____    ______ ____
ROOT
ATOM      1  C   UNL     1     -16.258   4.042  13.183  0.00  0.00    +0.000 C 
ENDROOT
BRANCH   1   2
ATOM      2  C   UNL     1     -15.032   4.211  14.117  0.00  0.00    +0.000 C 
BRANCH   2   3
ATOM      3  C   UNL     1     -14.102   2.963  14.144  0.00  0.00    +0.000 C 
BRANCH   3   4
ATOM      4  C   UNL     1     -12.740   3.289  14.750  0.00  0.00    +0.000 C 
BRANCH   4   5
ATOM      5  C   UNL     1     -11.620   2.443  14.124  0.00  0.00    +0.000 C 
BRANCH   5   6
ATOM      6  C   UNL     1     -10.412   3.313  13.737  0.00  0.00    +0.000 C 
BRANCH   6   8
ATOM      7  C   UNL     1      -8.669   4.287  15.261  0.00  0.00    +0.000 C 
ATOM      8  C   UNL     1     -10.117   4.361  14.783  0.00  0.00    +0.000 C 
ENDBRANCH   6   8
ENDBRANCH   5   6
ENDBRANCH   4   5
ENDBRANCH   3   4
ENDBRANCH   2   3
ENDBRANCH   1   2
BRANCH   1   9
ATOM      9  C   UNL     1     -16.296   5.111  12.076  0.00  0.00    +0.000 C 
BRANCH   9  10
ATOM     10  C   UNL     1     -16.169   4.479  10.684  0.00  0.00    +0.000 C 
BRANCH  10  11
ATOM     11  C   UNL     1     -15.478   3.101  10.722  0.00  0.00    +0.000 C 
BRANCH  11  12
ATOM     12  C   UNL     1     -16.313   2.021  10.030  0.00  0.00    +0.000 C 
BRANCH  12  13
ATOM     13  N   UNL     1     -15.552   0.747   9.994  0.00  0.00    +0.000 N 
ATOM     14  O   UNL     1     -14.967   0.580   8.808  0.00  0.00    +0.000 OA
ATOM     15  C   UNL     1     -14.506   0.817  11.032  0.00  0.00    +0.000 C 
ATOM     16  C   UNL     1     -16.437  -0.367  10.275  0.00  0.00    +0.000 C 
ENDBRANCH  12  13
ENDBRANCH  11  12
ENDBRANCH  10  11
ENDBRANCH   9  10
ENDBRANCH   1   9
TORSDOF 11
BEGIN_RES LEU A  10
REMARK  2 active torsions:
REMARK  status: ('A' for Active; 'I' for Inactive)
REMARK    1  A    between atoms: CA   and  CB  
REMARK    2  A    between atoms: CB   and  CG  
ROOT
ATOM      1  CA  LEU A  10     -10.775  -4.871   5.898  1.00 25.14     0.177 C 
ENDROOT
BRANCH   1   2
ATOM      2  CB  LEU A  10     -12.191  -4.387   6.226  1.00 17.87     0.038 C 
BRANCH   2   3
ATOM      3  CG  LEU A  10     -12.342  -2.866   6.285  1.00 24.95    -0.020 C 
ATOM      4  CD2 LEU A  10     -13.039  -2.494   7.550  1.00 26.38     0.009 C 
ATOM      5  CD1 LEU A  10     -13.109  -2.349   5.080  1.00 28.12     0.009 C 
ENDBRANCH   2   3
ENDBRANCH   1   2
END_RES LEU A  10
BEGIN_RES CYS A  12
REMARK  2 active torsions:
REMARK  status: ('A' for Active; 'I' for Inactive)
REMARK    3  A    between atoms: CA   and  CB  
REMARK    4  A    between atoms: CB   and  SG  
ROOT
ATOM      6  CA  CYS A  12      -8.555   0.470   8.750  1.00 23.16     0.185 C 
ENDROOT
BRANCH   6   7
ATOM      7  CB  CYS A  12      -9.828   0.763   9.555  1.00 20.43     0.105 C 
BRANCH   7   8
ATOM      8  SG  CYS A  12     -11.025   1.891   8.777  1.00 24.64    -0.180 SA
ATOM      9  H04 CYS A  12     -10.708   2.058   7.486  1.00 24.64     0.101 HD
ENDBRANCH   7   8
ENDBRANCH   6   7
END_RES CYS A  12
BEGIN_RES GLN A  14
REMARK  3 active torsions:
REMARK  status: ('A' for Active; 'I' for Inactive)
REMARK    5  A    between atoms: CA   and  CB  
REMARK    6  A    between atoms: CB   and  CG  
REMARK    7  A    between atoms: CG   and  CD  
REMARK       I    between atoms: CD   and  NE2 
ROOT
ATOM     10  CA  GLN A  14      -4.645   5.402  11.377  1.00 10.43     0.177 C 
ENDROOT
BRANCH  10  11
ATOM     11  CB  GLN A  14      -5.541   5.549  12.608  1.00 14.45     0.044 C 
BRANCH  11  12
ATOM     12  CG  GLN A  14      -6.619   6.598  12.465  1.00 13.74     0.105 C 
BRANCH  12  13
ATOM     13  CD  GLN A  14      -6.054   7.988  12.299  1.00 16.29     0.215 C 
ATOM     14  NE2 GLN A  14      -6.650   8.763  11.419  1.00  8.57    -0.370 N 
ATOM     15  H06 GLN A  14      -6.317   9.704  11.267  1.00  8.57     0.159 HD
ATOM     16  H07 GLN A  14      -7.442   8.417  10.896  1.00  8.57     0.159 HD
ATOM     17  OE1 GLN A  14      -5.095   8.361  12.957  1.00 23.55    -0.274 OA
ENDBRANCH  12  13
ENDBRANCH  11  12
ENDBRANCH  10  11
END_RES GLN A  14
BEGIN_RES SER A  16
REMARK  2 active torsions:
REMARK  status: ('A' for Active; 'I' for Inactive)
REMARK    8  A    between atoms: CA   and  CB  
REMARK    9  A    between atoms: CB   and  OG  
ROOT
ATOM     18  CA  SER A  16      -1.305  10.019  14.282  1.00  2.34     0.200 C 
ENDROOT
BRANCH  18  19
ATOM     19  CB  SER A  16      -2.242   9.935  15.479  1.00  3.12     0.199 C 
BRANCH  19  20
ATOM     20  OG  SER A  16      -3.466   9.328  15.105  1.00  1.00    -0.398 OA
ATOM     21  H04 SER A  16      -4.066   9.329  15.854  1.00  1.00     0.209 HD
ENDBRANCH  19  20
ENDBRANCH  18  19
END_RES SER A  16
BEGIN_RES LEU A  32
REMARK  2 active torsions:
REMARK  status: ('A' for Active; 'I' for Inactive)
REMARK   10  A    between atoms: CA   and  CB  
REMARK   11  A    between atoms: CB   and  CG  
ROOT
ATOM     22  CA  LEU A  32     -10.272  -4.106   1.587  1.00 16.16     0.177 C 
ENDROOT
BRANCH  22  23
ATOM     23  CB  LEU A  32     -11.613  -3.858   0.880  1.00 12.35     0.038 C 
BRANCH  23  24
ATOM     24  CG  LEU A  32     -12.623  -4.991   1.151  1.00  9.77    -0.020 C 
ATOM     25  CD1 LEU A  32     -13.023  -5.002   2.607  1.00  4.35     0.009 C 
ATOM     26  CD2 LEU A  32     -13.849  -4.836   0.289  1.00 10.60     0.009 C 
ENDBRANCH  23  24
ENDBRANCH  22  23
END_RES LEU A  32
BEGIN_RES HIS A  38
REMARK  2 active torsions:
REMARK  status: ('A' for Active; 'I' for Inactive)
REMARK   12  A    between atoms: CA   and  CB  
REMARK   13  A    between atoms: CB   and  CG  
ROOT
ATOM     27  CA  HIS A  38     -10.959   4.941   1.621  1.00 16.94     0.182 C 
ENDROOT
BRANCH  27  28
ATOM     28  CB  HIS A  38     -11.810   4.840   2.881  1.00 15.47     0.095 C 
BRANCH  28  29
ATOM     29  CG  HIS A  38     -13.000   3.947   2.736  1.00 18.62     0.053 A 
ATOM     30  CD2 HIS A  38     -14.164   4.121   2.065  1.00 15.06     0.116 A 
ATOM     31  NE2 HIS A  38     -14.900   2.976   2.236  1.00 18.12    -0.359 N 
ATOM     32  CE1 HIS A  38     -14.216   2.132   2.984  1.00 14.78     0.207 A 
ATOM     33  H06 HIS A  38     -15.819   2.808   1.851  1.00 18.12     0.166 HD
ATOM     34  ND1 HIS A  38     -13.066   2.693   3.300  1.00 16.58    -0.247 NA
ENDBRANCH  28  29
ENDBRANCH  27  28
END_RES HIS A  38
BEGIN_RES TRP A  63
REMARK  2 active torsions:
REMARK  status: ('A' for Active; 'I' for Inactive)
REMARK   14  A    between atoms: CA   and  CB  
REMARK   15  A    between atoms: CB   and  CG  
ROOT
ATOM     35  CA  TRP A  63     -22.437   6.257   6.543  1.00 27.04     0.181 C 
ENDROOT
BRANCH  35  36
ATOM     36  CB  TRP A  63     -22.360   6.642   5.068  1.00 31.37     0.075 C 
BRANCH  36  37
ATOM     37  CG  TRP A  63     -20.954   6.727   4.512  1.00 34.37    -0.028 A 
ATOM     38  CD2 TRP A  63     -19.903   5.762   4.660  1.00 33.79    -0.002 A 
ATOM     39  CE3 TRP A  63     -19.785   4.549   5.343  1.00 32.99     0.014 A 
ATOM     40  CE2 TRP A  63     -18.799   6.231   3.915  1.00 35.84     0.042 A 
ATOM     41  CZ3 TRP A  63     -18.587   3.853   5.265  1.00 32.93     0.001 A 
ATOM     42  CH2 TRP A  63     -17.506   4.347   4.518  1.00 39.24     0.002 A 
ATOM     43  CZ2 TRP A  63     -17.593   5.532   3.836  1.00 37.99     0.030 A 
ATOM     44  NE1 TRP A  63     -19.165   7.421   3.349  1.00 37.98    -0.365 N 
ATOM     45  H06 TRP A  63     -18.580   7.995   2.758  1.00 37.98     0.165 HD
ATOM     46  CD1 TRP A  63     -20.457   7.710   3.715  1.00 38.16     0.096 A 
ENDBRANCH  36  37
ENDBRANCH  35  36
END_RES TRP A  63
BEGIN_RES LEU A  66
REMARK  2 active torsions:
REMARK  status: ('A' for Active; 'I' for Inactive)
REMARK   16  A    between atoms: CA   and  CB  
REMARK   17  A    between atoms: CB   and  CG  
ROOT
ATOM     47  CA  LEU A  66     -20.004   6.489  11.120  1.00 10.90     0.177 C 
ENDROOT
BRANCH  47  48
ATOM     48  CB  LEU A  66     -19.626   5.453  10.069  1.00 13.57     0.038 C 
BRANCH  48  49
ATOM     49  CG  LEU A  66     -20.154   4.033  10.265  1.00  8.73    -0.020 C 
ATOM     50  CD1 LEU A  66     -19.714   3.141   9.134  1.00 14.23     0.009 C 
ATOM     51  CD2 LEU A  66     -19.628   3.504  11.575  1.00  1.92     0.009 C 
ENDBRANCH  48  49
ENDBRANCH  47  48
END_RES LEU A  66
BEGIN_RES PHE A  70
REMARK  2 active torsions:
REMARK  status: ('A' for Active; 'I' for Inactive)
REMARK   18  A    between atoms: CA   and  CB  
REMARK   19  A    between atoms: CB   and  CG  
ROOT
ATOM     52  CA  PHE A  70     -14.974   9.434  13.165  1.00  8.78     0.180 C 
ENDROOT
BRANCH  52  53
ATOM     53  CB  PHE A  70     -14.707   9.132  11.681  1.00  6.33     0.073 C 
BRANCH  53  54
ATOM     54  CG  PHE A  70     -13.945   7.854  11.458  1.00  3.42    -0.056 A 
ATOM     55  CD1 PHE A  70     -13.381   7.163  12.520  1.00 13.88     0.007 A 
ATOM     56  CE1 PHE A  70     -12.630   5.995  12.300  1.00 12.71     0.001 A 
ATOM     57  CZ  PHE A  70     -12.445   5.514  11.003  1.00  4.21     0.000 A 
ATOM     58  CE2 PHE A  70     -13.005   6.192   9.937  1.00  2.83     0.001 A 
ATOM     59  CD2 PHE A  70     -13.753   7.359  10.168  1.00  1.00     0.007 A 
ENDBRANCH  53  54
ENDBRANCH  52  53
END_RES PHE A  70
BEGIN_RES TYR A  73
REMARK  3 active torsions:
REMARK  status: ('A' for Active; 'I' for Inactive)
REMARK   20  A    between atoms: CA   and  CB  
REMARK   21  A    between atoms: CB   and  CG  
REMARK   22  A    between atoms: CZ   and  OH  
ROOT
ATOM     60  CA  TYR A  73     -13.212  10.166  17.260  1.00 12.17     0.180 C 
ENDROOT
BRANCH  60  61
ATOM     61  CB  TYR A  73     -13.301   8.846  16.517  1.00 12.84     0.073 C 
BRANCH  61  62
ATOM     62  CG  TYR A  73     -13.452   7.675  17.424  1.00 15.89    -0.056 A 
ATOM     63  CD1 TYR A  73     -13.389   7.822  18.792  1.00 16.00     0.010 A 
ATOM     64  CE1 TYR A  73     -13.499   6.723  19.642  1.00 13.55     0.037 A 
ATOM     65  CZ  TYR A  73     -13.673   5.464  19.102  1.00 18.13     0.065 A 
ATOM     66  CE2 TYR A  73     -13.739   5.290  17.739  1.00 15.89     0.037 A 
ATOM     67  CD2 TYR A  73     -13.629   6.397  16.907  1.00 21.86     0.010 A 
BRANCH  65  68
ATOM     68  OH  TYR A  73     -13.789   4.368  19.921  1.00 12.12    -0.361 OA
ATOM     69  H08 TYR A  73     -13.153   3.699  19.654  1.00 12.12     0.217 HD
ENDBRANCH  65  68
ENDBRANCH  61  62
ENDBRANCH  60  61
END_RES TYR A  73
BEGIN_RES PHE A  77
REMARK  2 active torsions:
REMARK  status: ('A' for Active; 'I' for Inactive)
REMARK   23  A    between atoms: CA   and  CB  
REMARK   24  A    between atoms: CB   and  CG  
ROOT
ATOM     70  CA  PHE A  77      -8.400  10.581  20.110  1.00 17.17     0.180 C 
ENDROOT
BRANCH  70  71
ATOM     71  CB  PHE A  77      -8.228   9.750  18.851  1.00 10.44     0.073 C 
BRANCH  71  72
ATOM     72  CG  PHE A  77      -8.853   8.393  18.935  1.00  6.07    -0.056 A 
ATOM     73  CD2 PHE A  77      -8.934   7.733  20.140  1.00  9.61     0.007 A 
ATOM     74  CE2 PHE A  77      -9.514   6.473  20.227  1.00  1.00     0.001 A 
ATOM     75  CZ  PHE A  77     -10.022   5.866  19.091  1.00  1.92     0.000 A 
ATOM     76  CE1 PHE A  77      -9.950   6.513  17.878  1.00  9.25     0.001 A 
ATOM     77  CD1 PHE A  77      -9.364   7.776  17.804  1.00  9.63     0.007 A 
ENDBRANCH  71  72
ENDBRANCH  70  71
END_RES PHE A  77
BEGIN_RES LEU A  96
REMARK  2 active torsions:
REMARK  status: ('A' for Active; 'I' for Inactive)
REMARK   25  A    between atoms: CA   and  CB  
REMARK   26  A    between atoms: CB   and  CG  
ROOT
ATOM     78  CA  LEU A  96       0.717   6.481  17.359  1.00 16.08     0.177 C 
ENDROOT
BRANCH  78  79
ATOM     79  CB  LEU A  96      -0.370   7.101  18.230  1.00 18.83     0.038 C 
BRANCH  79  80
ATOM     80  CG  LEU A  96      -0.146   6.943  19.734  1.00 19.03    -0.020 C 
ATOM     81  CD1 LEU A  96       0.572   8.168  20.251  1.00 28.17     0.009 C 
ATOM     82  CD2 LEU A  96      -1.468   6.824  20.455  1.00 22.01     0.009 C 
ENDBRANCH  79  80
ENDBRANCH  78  79
END_RES LEU A  96
BEGIN_RES VAL A  98
REMARK  1 active torsions:
REMARK  status: ('A' for Active; 'I' for Inactive)
REMARK   27  A    between atoms: CA   and  CB  
ROOT
ATOM     83  CA  VAL A  98      -3.928   2.082  14.897  1.00 19.83     0.180 C 
ENDROOT
BRANCH  83  84
ATOM     84  CB  VAL A  98      -5.203   2.807  15.281  1.00 17.87     0.009 C 
ATOM     85  CG2 VAL A  98      -4.915   4.266  15.524  1.00 29.90     0.012 C 
ATOM     86  CG1 VAL A  98      -5.799   2.164  16.516  1.00 14.79     0.012 C 
ENDBRANCH  83  84
END_RES VAL A  98
BEGIN_RES ASN A 112
REMARK  2 active torsions:
REMARK  status: ('A' for Active; 'I' for Inactive)
REMARK   28  A    between atoms: CA   and  CB  
REMARK   29  A    between atoms: CB   and  CG  
REMARK       I    between atoms: CG   and  ND2 
ROOT
ATOM     87  CA  ASN A 112     -11.790  -8.793  14.069  1.00 37.70     0.185 C 
ENDROOT
BRANCH  87  88
ATOM     88  CB  ASN A 112     -12.992  -7.945  14.465  1.00 26.24     0.137 C 
BRANCH  88  89
ATOM     89  CG  ASN A 112     -13.817  -8.566  15.570  1.00 21.77     0.217 C 
ATOM     90  ND2 ASN A 112     -14.966  -9.130  15.200  1.00  9.31    -0.370 N 
ATOM     91  H04 ASN A 112     -15.564  -9.560  15.892  1.00  9.31     0.159 HD
ATOM     92  H05 ASN A 112     -15.240  -9.127  14.228  1.00  9.31     0.159 HD
ATOM     93  OD1 ASN A 112     -13.432  -8.536  16.745  1.00 21.61    -0.274 OA
ENDBRANCH  88  89
ENDBRANCH  87  88
END_RES ASN A 112
BEGIN_RES PHE A 114
REMARK  2 active torsions:
REMARK  status: ('A' for Active; 'I' for Inactive)
REMARK   30  A    between atoms: CA   and  CB  
REMARK   31  A    between atoms: CB   and  CG  
ROOT
ATOM     94  CA  PHE A 114      -7.754  -3.619  17.012  1.00 26.06     0.180 C 
ENDROOT
BRANCH  94  95
ATOM     95  CB  PHE A 114      -8.890  -3.080  17.867  1.00 19.95     0.073 C 
BRANCH  95  96
ATOM     96  CG  PHE A 114      -9.229  -1.655  17.571  1.00 17.65    -0.056 A 
ATOM     97  CD1 PHE A 114      -8.230  -0.692  17.465  1.00 13.01     0.007 A 
ATOM     98  CE1 PHE A 114      -8.546   0.638  17.219  1.00  6.74     0.001 A 
ATOM     99  CZ  PHE A 114      -9.876   1.023  17.072  1.00  6.27     0.000 A 
ATOM    100  CE2 PHE A 114     -10.879   0.073  17.175  1.00 17.36     0.001 A 
ATOM    101  CD2 PHE A 114     -10.553  -1.265  17.424  1.00 18.39     0.007 A 
ENDBRANCH  95  96
ENDBRANCH  94  95
END_RES PHE A 114
BEGIN_RES VAL A 116
REMARK  1 active torsions:
REMARK  status: ('A' for Active; 'I' for Inactive)
REMARK   32  A    between atoms: CA   and  CB  
ROOT
ATOM    102  CA  VAL A 116      -2.467   0.283  18.565  1.00 13.48     0.180 C 
ENDROOT
BRANCH 102 103
ATOM    103  CB  VAL A 116      -3.101   1.238  19.599  1.00 20.86     0.009 C 
ATOM    104  CG1 VAL A 116      -3.060   2.672  19.064  1.00 25.01     0.012 C 
ATOM    105  CG2 VAL A 116      -4.510   0.810  19.934  1.00 25.34     0.012 C 
ENDBRANCH 102 103
END_RES VAL A 116
BEGIN_RES ILE A 123
REMARK  2 active torsions:
REMARK  status: ('A' for Active; 'I' for Inactive)
REMARK   33  A    between atoms: CA   and  CB  
REMARK   34  A    between atoms: CB   and  CG1 
ROOT
ATOM    106  CA  ILE A 123       1.557  -1.626  23.222  1.00 15.07     0.180 C 
ENDROOT
BRANCH 106 107
ATOM    107  CB  ILE A 123       1.697  -0.112  23.461  1.00 14.41     0.013 C 
ATOM    108  CG2 ILE A 123       3.085   0.202  23.991  1.00 18.35     0.012 C 
BRANCH 107 109
ATOM    109  CG1 ILE A 123       1.441   0.655  22.166  1.00 15.23     0.002 C 
ATOM    110  CD1 ILE A 123       0.192   1.502  22.201  1.00 14.67     0.005 C 
ENDBRANCH 107 109
ENDBRANCH 106 107
END_RES ILE A 123
BEGIN_RES LEU A 124
REMARK  2 active torsions:
REMARK  status: ('A' for Active; 'I' for Inactive)
REMARK   35  A    between atoms: CA   and  CB  
REMARK   36  A    between atoms: CB   and  CG  
ROOT
ATOM    111  CA  LEU A 124      -2.057  -2.686  23.524  1.00 11.86     0.177 C 
ENDROOT
BRANCH 111 112
ATOM    112  CB  LEU A 124      -2.698  -1.652  24.429  1.00 14.60     0.038 C 
BRANCH 112 113
ATOM    113  CG  LEU A 124      -2.638  -0.254  23.832  1.00 16.19    -0.020 C 
ATOM    114  CD1 LEU A 124      -4.065   0.199  23.470  1.00 22.07     0.009 C 
ATOM    115  CD2 LEU A 124      -1.982   0.684  24.814  1.00  9.12     0.009 C 
ENDBRANCH 112 113
ENDBRANCH 111 112
END_RES LEU A 124
BEGIN_RES PHE A 126
REMARK  2 active torsions:
REMARK  status: ('A' for Active; 'I' for Inactive)
REMARK   37  A    between atoms: CA   and  CB  
REMARK   38  A    between atoms: CB   and  CG  
ROOT
ATOM    116  CA  PHE A 126      -8.784  -4.792  22.233  1.00 23.15     0.180 C 
ENDROOT
BRANCH 116 117
ATOM    117  CB  PHE A 126      -9.823  -4.011  21.461  1.00 20.65     0.073 C 
BRANCH 117 118
ATOM    118  CG  PHE A 126     -10.950  -3.544  22.296  1.00 23.65    -0.056 A 
ATOM    119  CD2 PHE A 126     -10.764  -2.546  23.238  1.00 36.63     0.007 A 
ATOM    120  CE2 PHE A 126     -11.834  -2.103  24.028  1.00 36.27     0.001 A 
ATOM    121  CZ  PHE A 126     -13.091  -2.667  23.869  1.00 18.06     0.000 A 
ATOM    122  CE1 PHE A 126     -13.280  -3.660  22.930  1.00  5.50     0.001 A 
ATOM    123  CD1 PHE A 126     -12.211  -4.093  22.146  1.00 15.29     0.007 A 
ENDBRANCH 117 118
ENDBRANCH 116 117
END_RES PHE A 126
BEGIN_RES TRP A 131
REMARK  2 active torsions:
REMARK  status: ('A' for Active; 'I' for Inactive)
REMARK   39  A    between atoms: CA   and  CB  
REMARK   40  A    between atoms: CB   and  CG  
ROOT
ATOM    124  CA  TRP A 131      -8.096  -3.335  26.542  1.00 14.52     0.181 C 
ENDROOT
BRANCH 124 125
ATOM    125  CB  TRP A 131      -7.651  -1.877  26.607  1.00 13.06     0.075 C 
BRANCH 125 126
ATOM    126  CG  TRP A 131      -8.053  -1.051  25.406  1.00 16.97    -0.028 A 
ATOM    127  CD2 TRP A 131      -9.127  -0.108  25.340  1.00 11.34    -0.002 A 
ATOM    128  CE2 TRP A 131      -9.137   0.432  24.040  1.00  5.87     0.042 A 
ATOM    129  CE3 TRP A 131     -10.084   0.330  26.262  1.00  3.80     0.014 A 
ATOM    130  CZ2 TRP A 131     -10.067   1.393  23.637  1.00  1.35     0.030 A 
ATOM    131  NE1 TRP A 131      -8.117  -0.155  23.342  1.00 13.90    -0.365 N 
ATOM    132  CH2 TRP A 131     -10.994   1.805  24.562  1.00  1.00     0.002 A 
ATOM    133  CZ3 TRP A 131     -11.009   1.280  25.868  1.00  1.00     0.001 A 
ATOM    134  CD1 TRP A 131      -7.469  -1.044  24.168  1.00 17.22     0.096 A 
ATOM    135  H07 TRP A 131      -7.878   0.034  22.380  1.00 13.90     0.165 HD
ENDBRANCH 125 126
ENDBRANCH 124 125
END_RES TRP A 131
BEGIN_RES LEU A 148
REMARK  2 active torsions:
REMARK  status: ('A' for Active; 'I' for Inactive)
REMARK   41  A    between atoms: CA   and  CB  
REMARK   42  A    between atoms: CB   and  CG  
ROOT
ATOM    136  CA  LEU A 148      -9.018   3.259  29.295  1.00 16.99     0.177 C 
ENDROOT
BRANCH 136 137
ATOM    137  CB  LEU A 148      -8.166   2.574  28.236  1.00  6.39     0.038 C 
BRANCH 137 138
ATOM    138  CG  LEU A 148      -7.295   3.378  27.292  1.00  1.00    -0.020 C 
ATOM    139  CD2 LEU A 148      -7.973   3.532  25.962  1.00  1.00     0.009 C 
ATOM    140  CD1 LEU A 148      -5.970   2.655  27.136  1.00  2.71     0.009 C 
ENDBRANCH 137 138
ENDBRANCH 136 137
END_RES LEU A 148
BEGIN_RES THR A 154
REMARK  2 active torsions:
REMARK  status: ('A' for Active; 'I' for Inactive)
REMARK   43  A    between atoms: CA   and  CB  
REMARK   44  A    between atoms: CB   and  OG1 
ROOT
ATOM    141  CA  THR A 154     -15.990   3.959  24.426  1.00 20.45     0.205 C 
ENDROOT
BRANCH 141 142
ATOM    142  CB  THR A 154     -14.777   4.829  24.694  1.00 16.79     0.146 C 
ATOM    143  CG2 THR A 154     -13.670   4.502  23.710  1.00 20.24     0.042 C 
BRANCH 142 144
ATOM    144  OG1 THR A 154     -15.147   6.204  24.534  1.00 18.84    -0.393 OA
ATOM    145  H06 THR A 154     -14.986   6.476  23.628  1.00 18.84     0.210 HD
ENDBRANCH 142 144
ENDBRANCH 141 142
END_RES THR A 154
BEGIN_RES VAL A 158
REMARK  1 active torsions:
REMARK  status: ('A' for Active; 'I' for Inactive)
REMARK   45  A    between atoms: CA   and  CB  
ROOT
ATOM    146  CA  VAL A 158     -15.487  -0.189  19.892  1.00 15.49     0.180 C 
ENDROOT
BRANCH 146 147
ATOM    147  CB  VAL A 158     -14.291  -0.273  20.822  1.00  6.52     0.009 C 
ATOM    148  CG1 VAL A 158     -13.235  -1.196  20.260  1.00  1.00     0.012 C 
ATOM    149  CG2 VAL A 158     -13.739   1.105  21.020  1.00  5.99     0.012 C 
ENDBRANCH 146 147
END_RES VAL A 158
BEGIN_RES LEU A 161
REMARK  2 active torsions:
REMARK  status: ('A' for Active; 'I' for Inactive)
REMARK   46  A    between atoms: CA   and  CB  
REMARK   47  A    between atoms: CB   and  CG  
ROOT
ATOM    150  CA  LEU A 161     -18.031  -1.858  15.935  1.00 13.31     0.177 C 
ENDROOT
BRANCH 150 151
ATOM    151  CB  LEU A 161     -17.046  -0.706  16.001  1.00 14.13     0.038 C 
BRANCH 151 152
ATOM    152  CG  LEU A 161     -17.484   0.595  15.341  1.00 19.39    -0.020 C 
ATOM    153  CD2 LEU A 161     -16.998   0.647  13.913  1.00 27.75     0.009 C 
ATOM    154  CD1 LEU A 161     -16.918   1.751  16.121  1.00 18.59     0.009 C 
ENDBRANCH 151 152
ENDBRANCH 150 151
END_RES LEU A 161
BEGIN_RES GLN A 168
REMARK  3 active torsions:
REMARK  status: ('A' for Active; 'I' for Inactive)
REMARK   48  A    between atoms: CA   and  CB  
REMARK   49  A    between atoms: CB   and  CG  
REMARK   50  A    between atoms: CG   and  CD  
REMARK       I    between atoms: CD   and  NE2 
ROOT
ATOM    155  CA  GLN A 168     -22.035  -6.020   8.155  1.00 30.94     0.177 C 
ENDROOT
BRANCH 155 156
ATOM    156  CB  GLN A 168     -23.054  -5.218   8.946  1.00 41.76     0.044 C 
BRANCH 156 157
ATOM    157  CG  GLN A 168     -24.481  -5.428   8.519  1.00 61.20     0.105 C 
BRANCH 157 158
ATOM    158  CD  GLN A 168     -24.978  -4.302   7.634  1.00 75.49     0.215 C 
ATOM    159  NE2 GLN A 168     -24.817  -4.469   6.320  1.00 85.00    -0.370 N 
ATOM    160  H06 GLN A 168     -25.125  -3.752   5.678  1.00 85.00     0.159 HD
ATOM    161  H07 GLN A 168     -24.386  -5.312   5.967  1.00 85.00     0.159 HD
ATOM    162  OE1 GLN A 168     -25.497  -3.287   8.121  1.00 73.64    -0.274 OA
ENDBRANCH 157 158
ENDBRANCH 156 157
ENDBRANCH 155 156
END_RES GLN A 168
ENDMDL
MODEL 7
REMARK VINA RESULT:      -6.3      2.017      7.448
REMARK  Name = human_CD1d_LDAO_pred.rank_0
REMARK  11 active torsions:
REMARK  status: ('A' for Active; 'I' for Inactive)
REMARK    1  A    between atoms: N_2  and  C_14
REMARK    2  A    between atoms: C_4  and  C_5
REMARK    3  A    between atoms: C_5  and  C_6
REMARK    4  A    between atoms: C_6  and  C_7
REMARK    5  A    between atoms: C_7  and  C_8
REMARK    6  A    between atoms: C_8  and  C_9
REMARK    7  A    between atoms: C_9  and  C_10
REMARK    8  A    between atoms: C_10  and  C_11
REMARK    9  A    between atoms: C_11  and  C_12
REMARK   10  A    between atoms: C_12  and  C_13
REMARK   11  A    between atoms: C_13  and  C_14
REMARK                            x       y       z     vdW  Elec       q    Type
REMARK                         _______ _______ _______ _____ _____    ______ ____
ROOT
ATOM      1  C   UNL     1      -2.910   4.354  25.349  0.00  0.00    +0.000 C 
ENDROOT
BRANCH   1   2
ATOM      2  C   UNL     1      -1.750   4.266  24.324  0.00  0.00    +0.000 C 
BRANCH   2   3
ATOM      3  C   UNL     1      -0.346   4.171  24.990  0.00  0.00    +0.000 C 
BRANCH   3   4
ATOM      4  C   UNL     1       0.727   4.842  24.138  0.00  0.00    +0.000 C 
BRANCH   4   5
ATOM      5  C   UNL     1       1.046   6.261  24.636  0.00  0.00    +0.000 C 
BRANCH   5   6
ATOM      6  C   UNL     1       0.305   7.324  23.808  0.00  0.00    +0.000 C 
BRANCH   6   8
ATOM      7  C   UNL     1       1.573   9.411  24.396  0.00  0.00    +0.000 C 
ATOM      8  C   UNL     1       0.253   8.655  24.520  0.00  0.00    +0.000 C 
ENDBRANCH   6   8
ENDBRANCH   5   6
ENDBRANCH   4   5
ENDBRANCH   3   4
ENDBRANCH   2   3
ENDBRANCH   1   2
BRANCH   1   9
ATOM      9  C   UNL     1      -4.266   4.621  24.670  0.00  0.00    +0.000 C 
BRANCH   9  10
ATOM     10  C   UNL     1      -4.346   3.943  23.296  0.00  0.00    +0.000 C 
BRANCH  10  11
ATOM     11  C   UNL     1      -5.797   3.645  22.868  0.00  0.00    +0.000 C 
BRANCH  11  12
ATOM     12  C   UNL     1      -5.955   3.628  21.346  0.00  0.00    +0.000 C 
BRANCH  12  13
ATOM     13  N   UNL     1      -7.341   3.234  20.991  0.00  0.00    +0.000 N 
ATOM     14  O   UNL     1      -7.562   1.957  21.299  0.00  0.00    +0.000 OA
ATOM     15  C   UNL     1      -8.264   4.077  21.775  0.00  0.00    +0.000 C 
ATOM     16  C   UNL     1      -7.572   3.454  19.576  0.00  0.00    +0.000 C 
ENDBRANCH  12  13
ENDBRANCH  11  12
ENDBRANCH  10  11
ENDBRANCH   9  10
ENDBRANCH   1   9
TORSDOF 11
BEGIN_RES LEU A  10
REMARK  2 active torsions:
REMARK  status: ('A' for Active; 'I' for Inactive)
REMARK    1  A    between atoms: CA   and  CB  
REMARK    2  A    between atoms: CB   and  CG  
ROOT
ATOM      1  CA  LEU A  10     -10.775  -4.871   5.898  1.00 25.14     0.177 C 
ENDROOT
BRANCH   1   2
ATOM      2  CB  LEU A  10     -12.191  -4.387   6.226  1.00 17.87     0.038 C 
BRANCH   2   3
ATOM      3  CG  LEU A  10     -12.412  -2.888   6.015  1.00 24.95    -0.020 C 
ATOM      4  CD2 LEU A  10     -13.673  -2.481   6.699  1.00 26.38     0.009 C 
ATOM      5  CD1 LEU A  10     -12.474  -2.551   4.535  1.00 28.12     0.009 C 
ENDBRANCH   2   3
ENDBRANCH   1   2
END_RES LEU A  10
BEGIN_RES CYS A  12
REMARK  2 active torsions:
REMARK  status: ('A' for Active; 'I' for Inactive)
REMARK    3  A    between atoms: CA   and  CB  
REMARK    4  A    between atoms: CB   and  SG  
ROOT
ATOM      6  CA  CYS A  12      -8.555   0.470   8.750  1.00 23.16     0.185 C 
ENDROOT
BRANCH   6   7
ATOM      7  CB  CYS A  12      -9.828   0.763   9.555  1.00 20.43     0.105 C 
BRANCH   7   8
ATOM      8  SG  CYS A  12     -10.940   2.025   8.862  1.00 24.64    -0.180 SA
ATOM      9  H04 CYS A  12     -10.884   3.132   9.613  1.00 24.64     0.101 HD
ENDBRANCH   7   8
ENDBRANCH   6   7
END_RES CYS A  12
BEGIN_RES GLN A  14
REMARK  3 active torsions:
REMARK  status: ('A' for Active; 'I' for Inactive)
REMARK    5  A    between atoms: CA   and  CB  
REMARK    6  A    between atoms: CB   and  CG  
REMARK    7  A    between atoms: CG   and  CD  
REMARK       I    between atoms: CD   and  NE2 
ROOT
ATOM     10  CA  GLN A  14      -4.645   5.402  11.377  1.00 10.43     0.177 C 
ENDROOT
BRANCH  10  11
ATOM     11  CB  GLN A  14      -5.541   5.549  12.608  1.00 14.45     0.044 C 
BRANCH  11  12
ATOM     12  CG  GLN A  14      -6.614   6.604  12.468  1.00 13.74     0.105 C 
BRANCH  12  13
ATOM     13  CD  GLN A  14      -6.042   7.991  12.300  1.00 16.29     0.215 C 
ATOM     14  NE2 GLN A  14      -6.642   8.772  11.428  1.00  8.57    -0.370 N 
ATOM     15  H06 GLN A  14      -6.304   9.711  11.275  1.00  8.57     0.159 HD
ATOM     16  H07 GLN A  14      -7.441   8.432  10.912  1.00  8.57     0.159 HD
ATOM     17  OE1 GLN A  14      -5.074   8.356  12.949  1.00 23.55    -0.274 OA
ENDBRANCH  12  13
ENDBRANCH  11  12
ENDBRANCH  10  11
END_RES GLN A  14
BEGIN_RES SER A  16
REMARK  2 active torsions:
REMARK  status: ('A' for Active; 'I' for Inactive)
REMARK    8  A    between atoms: CA   and  CB  
REMARK    9  A    between atoms: CB   and  OG  
ROOT
ATOM     18  CA  SER A  16      -1.305  10.019  14.282  1.00  2.34     0.200 C 
ENDROOT
BRANCH  18  19
ATOM     19  CB  SER A  16      -2.242   9.935  15.479  1.00  3.12     0.199 C 
BRANCH  19  20
ATOM     20  OG  SER A  16      -3.467   9.331  15.104  1.00  1.00    -0.398 OA
ATOM     21  H04 SER A  16      -3.392   8.377  15.184  1.00  1.00     0.209 HD
ENDBRANCH  19  20
ENDBRANCH  18  19
END_RES SER A  16
BEGIN_RES LEU A  32
REMARK  2 active torsions:
REMARK  status: ('A' for Active; 'I' for Inactive)
REMARK   10  A    between atoms: CA   and  CB  
REMARK   11  A    between atoms: CB   and  CG  
ROOT
ATOM     22  CA  LEU A  32     -10.272  -4.106   1.587  1.00 16.16     0.177 C 
ENDROOT
BRANCH  22  23
ATOM     23  CB  LEU A  32     -11.613  -3.858   0.880  1.00 12.35     0.038 C 
BRANCH  23  24
ATOM     24  CG  LEU A  32     -12.539  -5.089   0.957  1.00  9.77    -0.020 C 
ATOM     25  CD1 LEU A  32     -13.002  -5.310   2.378  1.00  4.35     0.009 C 
ATOM     26  CD2 LEU A  32     -13.733  -4.920   0.054  1.00 10.60     0.009 C 
ENDBRANCH  23  24
ENDBRANCH  22  23
END_RES LEU A  32
BEGIN_RES HIS A  38
REMARK  2 active torsions:
REMARK  status: ('A' for Active; 'I' for Inactive)
REMARK   12  A    between atoms: CA   and  CB  
REMARK   13  A    between atoms: CB   and  CG  
ROOT
ATOM     27  CA  HIS A  38     -10.959   4.941   1.621  1.00 16.94     0.182 C 
ENDROOT
BRANCH  27  28
ATOM     28  CB  HIS A  38     -11.810   4.840   2.881  1.00 15.47     0.095 C 
BRANCH  28  29
ATOM     29  CG  HIS A  38     -12.995   3.940   2.739  1.00 18.62     0.053 A 
ATOM     30  CD2 HIS A  38     -14.160   4.105   2.069  1.00 15.06     0.116 A 
ATOM     31  NE2 HIS A  38     -14.890   2.957   2.243  1.00 18.12    -0.359 N 
ATOM     32  CE1 HIS A  38     -14.200   2.118   2.992  1.00 14.78     0.207 A 
ATOM     33  H06 HIS A  38     -15.808   2.782   1.859  1.00 18.12     0.166 HD
ATOM     34  ND1 HIS A  38     -13.054   2.686   3.306  1.00 16.58    -0.247 NA
ENDBRANCH  28  29
ENDBRANCH  27  28
END_RES HIS A  38
BEGIN_RES TRP A  63
REMARK  2 active torsions:
REMARK  status: ('A' for Active; 'I' for Inactive)
REMARK   14  A    between atoms: CA   and  CB  
REMARK   15  A    between atoms: CB   and  CG  
ROOT
ATOM     35  CA  TRP A  63     -22.437   6.257   6.543  1.00 27.04     0.181 C 
ENDROOT
BRANCH  35  36
ATOM     36  CB  TRP A  63     -22.360   6.642   5.068  1.00 31.37     0.075 C 
BRANCH  36  37
ATOM     37  CG  TRP A  63     -20.953   6.787   4.528  1.00 34.37    -0.028 A 
ATOM     38  CD2 TRP A  63     -19.887   5.831   4.615  1.00 33.79    -0.002 A 
ATOM     39  CE3 TRP A  63     -19.753   4.576   5.214  1.00 32.99     0.014 A 
ATOM     40  CE2 TRP A  63     -18.787   6.367   3.912  1.00 35.84     0.042 A 
ATOM     41  CZ3 TRP A  63     -18.544   3.906   5.097  1.00 32.93     0.001 A 
ATOM     42  CH2 TRP A  63     -17.467   4.467   4.391  1.00 39.24     0.002 A 
ATOM     43  CZ2 TRP A  63     -17.570   5.694   3.792  1.00 37.99     0.030 A 
ATOM     44  NE1 TRP A  63     -19.169   7.588   3.426  1.00 37.98    -0.365 N 
ATOM     45  H06 TRP A  63     -18.591   8.209   2.880  1.00 37.98     0.165 HD
ATOM     46  CD1 TRP A  63     -20.468   7.830   3.803  1.00 38.16     0.096 A 
ENDBRANCH  36  37
ENDBRANCH  35  36
END_RES TRP A  63
BEGIN_RES LEU A  66
REMARK  2 active torsions:
REMARK  status: ('A' for Active; 'I' for Inactive)
REMARK   16  A    between atoms: CA   and  CB  
REMARK   17  A    between atoms: CB   and  CG  
ROOT
ATOM     47  CA  LEU A  66     -20.004   6.489  11.120  1.00 10.90     0.177 C 
ENDROOT
BRANCH  47  48
ATOM     48  CB  LEU A  66     -19.626   5.453  10.069  1.00 13.57     0.038 C 
BRANCH  48  49
ATOM     49  CG  LEU A  66     -19.360   4.029  10.555  1.00  8.73    -0.020 C 
ATOM     50  CD1 LEU A  66     -19.211   3.998  12.054  1.00 14.23     0.009 C 
ATOM     51  CD2 LEU A  66     -20.513   3.156  10.131  1.00  1.92     0.009 C 
ENDBRANCH  48  49
ENDBRANCH  47  48
END_RES LEU A  66
BEGIN_RES PHE A  70
REMARK  2 active torsions:
REMARK  status: ('A' for Active; 'I' for Inactive)
REMARK   18  A    between atoms: CA   and  CB  
REMARK   19  A    between atoms: CB   and  CG  
ROOT
ATOM     52  CA  PHE A  70     -14.974   9.434  13.165  1.00  8.78     0.180 C 
ENDROOT
BRANCH  52  53
ATOM     53  CB  PHE A  70     -14.707   9.132  11.681  1.00  6.33     0.073 C 
BRANCH  53  54
ATOM     54  CG  PHE A  70     -13.935   7.860  11.459  1.00  3.42    -0.056 A 
ATOM     55  CD1 PHE A  70     -13.701   7.379  10.179  1.00 13.88     0.007 A 
ATOM     56  CE1 PHE A  70     -13.020   6.165   9.981  1.00 12.71     0.001 A 
ATOM     57  CZ  PHE A  70     -12.567   5.427  11.075  1.00  4.21     0.000 A 
ATOM     58  CE2 PHE A  70     -12.792   5.898  12.355  1.00  2.83     0.001 A 
ATOM     59  CD2 PHE A  70     -13.474   7.112  12.543  1.00  1.00     0.007 A 
ENDBRANCH  53  54
ENDBRANCH  52  53
END_RES PHE A  70
BEGIN_RES TYR A  73
REMARK  3 active torsions:
REMARK  status: ('A' for Active; 'I' for Inactive)
REMARK   20  A    between atoms: CA   and  CB  
REMARK   21  A    between atoms: CB   and  CG  
REMARK   22  A    between atoms: CZ   and  OH  
ROOT
ATOM     60  CA  TYR A  73     -13.212  10.166  17.260  1.00 12.17     0.180 C 
ENDROOT
BRANCH  60  61
ATOM     61  CB  TYR A  73     -13.301   8.846  16.517  1.00 12.84     0.073 C 
BRANCH  61  62
ATOM     62  CG  TYR A  73     -13.169   7.663  17.411  1.00 15.89    -0.056 A 
ATOM     63  CD1 TYR A  73     -11.942   7.279  17.906  1.00 16.00     0.010 A 
ATOM     64  CE1 TYR A  73     -11.812   6.154  18.719  1.00 13.55     0.037 A 
ATOM     65  CZ  TYR A  73     -12.933   5.411  19.031  1.00 18.13     0.065 A 
ATOM     66  CE2 TYR A  73     -14.170   5.773  18.551  1.00 15.89     0.037 A 
ATOM     67  CD2 TYR A  73     -14.281   6.898  17.743  1.00 21.86     0.010 A 
BRANCH  65  68
ATOM     68  OH  TYR A  73     -12.829   4.302  19.835  1.00 12.12    -0.361 OA
ATOM     69  H08 TYR A  73     -12.252   4.497  20.577  1.00 12.12     0.217 HD
ENDBRANCH  65  68
ENDBRANCH  61  62
ENDBRANCH  60  61
END_RES TYR A  73
BEGIN_RES PHE A  77
REMARK  2 active torsions:
REMARK  status: ('A' for Active; 'I' for Inactive)
REMARK   23  A    between atoms: CA   and  CB  
REMARK   24  A    between atoms: CB   and  CG  
ROOT
ATOM     70  CA  PHE A  77      -8.400  10.581  20.110  1.00 17.17     0.180 C 
ENDROOT
BRANCH  70  71
ATOM     71  CB  PHE A  77      -8.228   9.750  18.851  1.00 10.44     0.073 C 
BRANCH  71  72
ATOM     72  CG  PHE A  77      -7.117   8.751  18.935  1.00  6.07    -0.056 A 
ATOM     73  CD2 PHE A  77      -6.088   8.771  18.021  1.00  9.61     0.007 A 
ATOM     74  CE2 PHE A  77      -5.051   7.848  18.092  1.00  1.00     0.001 A 
ATOM     75  CZ  PHE A  77      -5.043   6.894  19.095  1.00  1.92     0.000 A 
ATOM     76  CE1 PHE A  77      -6.063   6.862  20.019  1.00  9.25     0.001 A 
ATOM     77  CD1 PHE A  77      -7.098   7.793  19.935  1.00  9.63     0.007 A 
ENDBRANCH  71  72
ENDBRANCH  70  71
END_RES PHE A  77
BEGIN_RES LEU A  96
REMARK  2 active torsions:
REMARK  status: ('A' for Active; 'I' for Inactive)
REMARK   25  A    between atoms: CA   and  CB  
REMARK   26  A    between atoms: CB   and  CG  
ROOT
ATOM     78  CA  LEU A  96       0.717   6.481  17.359  1.00 16.08     0.177 C 
ENDROOT
BRANCH  78  79
ATOM     79  CB  LEU A  96      -0.370   7.101  18.230  1.00 18.83     0.038 C 
BRANCH  79  80
ATOM     80  CG  LEU A  96      -0.134   6.963  19.734  1.00 19.03    -0.020 C 
ATOM     81  CD1 LEU A  96       0.576   8.200  20.232  1.00 28.17     0.009 C 
ATOM     82  CD2 LEU A  96      -1.451   6.840  20.465  1.00 22.01     0.009 C 
ENDBRANCH  79  80
ENDBRANCH  78  79
END_RES LEU A  96
BEGIN_RES VAL A  98
REMARK  1 active torsions:
REMARK  status: ('A' for Active; 'I' for Inactive)
REMARK   27  A    between atoms: CA   and  CB  
ROOT
ATOM     83  CA  VAL A  98      -3.928   2.082  14.897  1.00 19.83     0.180 C 
ENDROOT
BRANCH  83  84
ATOM     84  CB  VAL A  98      -5.203   2.807  15.281  1.00 17.87     0.009 C 
ATOM     85  CG2 VAL A  98      -4.910   4.260  15.552  1.00 29.90     0.012 C 
ATOM     86  CG1 VAL A  98      -5.815   2.146  16.498  1.00 14.79     0.012 C 
ENDBRANCH  83  84
END_RES VAL A  98
BEGIN_RES ASN A 112
REMARK  2 active torsions:
REMARK  status: ('A' for Active; 'I' for Inactive)
REMARK   28  A    between atoms: CA   and  CB  
REMARK   29  A    between atoms: CB   and  CG  
REMARK       I    between atoms: CG   and  ND2 
ROOT
ATOM     87  CA  ASN A 112     -11.790  -8.793  14.069  1.00 37.70     0.185 C 
ENDROOT
BRANCH  87  88
ATOM     88  CB  ASN A 112     -12.992  -7.945  14.465  1.00 26.24     0.137 C 
BRANCH  88  89
ATOM     89  CG  ASN A 112     -13.816  -8.565  15.571  1.00 21.77     0.217 C 
ATOM     90  ND2 ASN A 112     -14.966  -9.129  15.203  1.00  9.31    -0.370 N 
ATOM     91  H04 ASN A 112     -15.562  -9.559  15.895  1.00  9.31     0.159 HD
ATOM     92  H05 ASN A 112     -15.240  -9.128  14.230  1.00  9.31     0.159 HD
ATOM     93  OD1 ASN A 112     -13.430  -8.534  16.746  1.00 21.61    -0.274 OA
ENDBRANCH  88  89
ENDBRANCH  87  88
END_RES ASN A 112
BEGIN_RES PHE A 114
REMARK  2 active torsions:
REMARK  status: ('A' for Active; 'I' for Inactive)
REMARK   30  A    between atoms: CA   and  CB  
REMARK   31  A    between atoms: CB   and  CG  
ROOT
ATOM     94  CA  PHE A 114      -7.754  -3.619  17.012  1.00 26.06     0.180 C 
ENDROOT
BRANCH  94  95
ATOM     95  CB  PHE A 114      -8.890  -3.080  17.867  1.00 19.95     0.073 C 
BRANCH  95  96
ATOM     96  CG  PHE A 114      -9.193  -1.639  17.610  1.00 17.65    -0.056 A 
ATOM     97  CD1 PHE A 114     -10.508  -1.198  17.492  1.00 13.01     0.007 A 
ATOM     98  CE1 PHE A 114     -10.790   0.135  17.224  1.00  6.74     0.001 A 
ATOM     99  CZ  PHE A 114      -9.752   1.050  17.072  1.00  6.27     0.000 A 
ATOM    100  CE2 PHE A 114      -8.439   0.622  17.187  1.00 17.36     0.001 A 
ATOM    101  CD2 PHE A 114      -8.163  -0.722  17.456  1.00 18.39     0.007 A 
ENDBRANCH  95  96
ENDBRANCH  94  95
END_RES PHE A 114
BEGIN_RES VAL A 116
REMARK  1 active torsions:
REMARK  status: ('A' for Active; 'I' for Inactive)
REMARK   32  A    between atoms: CA   and  CB  
ROOT
ATOM    102  CA  VAL A 116      -2.467   0.283  18.565  1.00 13.48     0.180 C 
ENDROOT
BRANCH 102 103
ATOM    103  CB  VAL A 116      -3.101   1.238  19.599  1.00 20.86     0.009 C 
ATOM    104  CG1 VAL A 116      -3.122   2.662  19.035  1.00 25.01     0.012 C 
ATOM    105  CG2 VAL A 116      -4.485   0.772  19.985  1.00 25.34     0.012 C 
ENDBRANCH 102 103
END_RES VAL A 116
BEGIN_RES ILE A 123
REMARK  2 active torsions:
REMARK  status: ('A' for Active; 'I' for Inactive)
REMARK   33  A    between atoms: CA   and  CB  
REMARK   34  A    between atoms: CB   and  CG1 
ROOT
ATOM    106  CA  ILE A 123       1.557  -1.626  23.222  1.00 15.07     0.180 C 
ENDROOT
BRANCH 106 107
ATOM    107  CB  ILE A 123       1.697  -0.112  23.461  1.00 14.41     0.013 C 
ATOM    108  CG2 ILE A 123       3.094   0.205  23.964  1.00 18.35     0.012 C 
BRANCH 107 109
ATOM    109  CG1 ILE A 123       1.413   0.657  22.173  1.00 15.23     0.002 C 
ATOM    110  CD1 ILE A 123       0.202   1.555  22.258  1.00 14.67     0.005 C 
ENDBRANCH 107 109
ENDBRANCH 106 107
END_RES ILE A 123
BEGIN_RES LEU A 124
REMARK  2 active torsions:
REMARK  status: ('A' for Active; 'I' for Inactive)
REMARK   35  A    between atoms: CA   and  CB  
REMARK   36  A    between atoms: CB   and  CG  
ROOT
ATOM    111  CA  LEU A 124      -2.057  -2.686  23.524  1.00 11.86     0.177 C 
ENDROOT
BRANCH 111 112
ATOM    112  CB  LEU A 124      -2.698  -1.652  24.429  1.00 14.60     0.038 C 
BRANCH 112 113
ATOM    113  CG  LEU A 124      -2.637  -0.254  23.832  1.00 16.19    -0.020 C 
ATOM    114  CD1 LEU A 124      -4.065   0.203  23.479  1.00 22.07     0.009 C 
ATOM    115  CD2 LEU A 124      -1.973   0.682  24.811  1.00  9.12     0.009 C 
ENDBRANCH 112 113
ENDBRANCH 111 112
END_RES LEU A 124
BEGIN_RES PHE A 126
REMARK  2 active torsions:
REMARK  status: ('A' for Active; 'I' for Inactive)
REMARK   37  A    between atoms: CA   and  CB  
REMARK   38  A    between atoms: CB   and  CG  
ROOT
ATOM    116  CA  PHE A 126      -8.784  -4.792  22.233  1.00 23.15     0.180 C 
ENDROOT
BRANCH 116 117
ATOM    117  CB  PHE A 126      -9.823  -4.011  21.461  1.00 20.65     0.073 C 
BRANCH 117 118
ATOM    118  CG  PHE A 126     -10.954  -3.550  22.295  1.00 23.65    -0.056 A 
ATOM    119  CD2 PHE A 126     -12.210  -4.111  22.153  1.00 36.63     0.007 A 
ATOM    120  CE2 PHE A 126     -13.281  -3.674  22.945  1.00 36.27     0.001 A 
ATOM    121  CZ  PHE A 126     -13.084  -2.670  23.881  1.00 18.06     0.000 A 
ATOM    122  CE1 PHE A 126     -11.831  -2.109  24.027  1.00  5.50     0.001 A 
ATOM    123  CD1 PHE A 126     -10.771  -2.552  23.236  1.00 15.29     0.007 A 
ENDBRANCH 117 118
ENDBRANCH 116 117
END_RES PHE A 126
BEGIN_RES TRP A 131
REMARK  2 active torsions:
REMARK  status: ('A' for Active; 'I' for Inactive)
REMARK   39  A    between atoms: CA   and  CB  
REMARK   40  A    between atoms: CB   and  CG  
ROOT
ATOM    124  CA  TRP A 131      -8.096  -3.335  26.542  1.00 14.52     0.181 C 
ENDROOT
BRANCH 124 125
ATOM    125  CB  TRP A 131      -7.651  -1.877  26.607  1.00 13.06     0.075 C 
BRANCH 125 126
ATOM    126  CG  TRP A 131      -8.069  -1.046  25.414  1.00 16.97    -0.028 A 
ATOM    127  CD2 TRP A 131      -9.149  -0.110  25.365  1.00 11.34    -0.002 A 
ATOM    128  CE2 TRP A 131      -9.175   0.438  24.067  1.00  5.87     0.042 A 
ATOM    129  CE3 TRP A 131     -10.100   0.318  26.298  1.00  3.80     0.014 A 
ATOM    130  CZ2 TRP A 131     -10.113   1.396  23.679  1.00  1.35     0.030 A 
ATOM    131  NE1 TRP A 131      -8.158  -0.139  23.357  1.00 13.90    -0.365 N 
ATOM    132  CH2 TRP A 131     -11.034   1.798  24.615  1.00  1.00     0.002 A 
ATOM    133  CZ3 TRP A 131     -11.034   1.265  25.918  1.00  1.00     0.001 A 
ATOM    134  CD1 TRP A 131      -7.498  -1.029  24.171  1.00 17.22     0.096 A 
ATOM    135  H07 TRP A 131      -7.930   0.056  22.393  1.00 13.90     0.165 HD
ENDBRANCH 125 126
ENDBRANCH 124 125
END_RES TRP A 131
BEGIN_RES LEU A 148
REMARK  2 active torsions:
REMARK  status: ('A' for Active; 'I' for Inactive)
REMARK   41  A    between atoms: CA   and  CB  
REMARK   42  A    between atoms: CB   and  CG  
ROOT
ATOM    136  CA  LEU A 148      -9.018   3.259  29.295  1.00 16.99     0.177 C 
ENDROOT
BRANCH 136 137
ATOM    137  CB  LEU A 148      -8.166   2.574  28.236  1.00  6.39     0.038 C 
BRANCH 137 138
ATOM    138  CG  LEU A 148      -7.508   3.369  27.127  1.00  1.00    -0.020 C 
ATOM    139  CD2 LEU A 148      -8.548   4.045  26.283  1.00  1.00     0.009 C 
ATOM    140  CD1 LEU A 148      -6.676   2.417  26.288  1.00  2.71     0.009 C 
ENDBRANCH 137 138
ENDBRANCH 136 137
END_RES LEU A 148
BEGIN_RES THR A 154
REMARK  2 active torsions:
REMARK  status: ('A' for Active; 'I' for Inactive)
REMARK   43  A    between atoms: CA   and  CB  
REMARK   44  A    between atoms: CB   and  OG1 
ROOT
ATOM    141  CA  THR A 154     -15.990   3.959  24.426  1.00 20.45     0.205 C 
ENDROOT
BRANCH 141 142
ATOM    142  CB  THR A 154     -14.777   4.829  24.694  1.00 16.79     0.146 C 
ATOM    143  CG2 THR A 154     -13.672   4.504  23.708  1.00 20.24     0.042 C 
BRANCH 142 144
ATOM    144  OG1 THR A 154     -15.148   6.204  24.537  1.00 18.84    -0.393 OA
ATOM    145  H06 THR A 154     -14.641   6.594  23.821  1.00 18.84     0.210 HD
ENDBRANCH 142 144
ENDBRANCH 141 142
END_RES THR A 154
BEGIN_RES VAL A 158
REMARK  1 active torsions:
REMARK  status: ('A' for Active; 'I' for Inactive)
REMARK   45  A    between atoms: CA   and  CB  
ROOT
ATOM    146  CA  VAL A 158     -15.487  -0.189  19.892  1.00 15.49     0.180 C 
ENDROOT
BRANCH 146 147
ATOM    147  CB  VAL A 158     -14.291  -0.273  20.822  1.00  6.52     0.009 C 
ATOM    148  CG1 VAL A 158     -13.248  -1.221  20.275  1.00  1.00     0.012 C 
ATOM    149  CG2 VAL A 158     -13.719   1.100  20.994  1.00  5.99     0.012 C 
ENDBRANCH 146 147
END_RES VAL A 158
BEGIN_RES LEU A 161
REMARK  2 active torsions:
REMARK  status: ('A' for Active; 'I' for Inactive)
REMARK   46  A    between atoms: CA   and  CB  
REMARK   47  A    between atoms: CB   and  CG  
ROOT
ATOM    150  CA  LEU A 161     -18.031  -1.858  15.935  1.00 13.31     0.177 C 
ENDROOT
BRANCH 150 151
ATOM    151  CB  LEU A 161     -17.046  -0.706  16.001  1.00 14.13     0.038 C 
BRANCH 151 152
ATOM    152  CG  LEU A 161     -17.531   0.629  15.450  1.00 19.39    -0.020 C 
ATOM    153  CD2 LEU A 161     -17.433   0.640  13.944  1.00 27.75     0.009 C 
ATOM    154  CD1 LEU A 161     -16.686   1.731  16.030  1.00 18.59     0.009 C 
ENDBRANCH 151 152
ENDBRANCH 150 151
END_RES LEU A 161
BEGIN_RES GLN A 168
REMARK  3 active torsions:
REMARK  status: ('A' for Active; 'I' for Inactive)
REMARK   48  A    between atoms: CA   and  CB  
REMARK   49  A    between atoms: CB   and  CG  
REMARK   50  A    between atoms: CG   and  CD  
REMARK       I    between atoms: CD   and  NE2 
ROOT
ATOM    155  CA  GLN A 168     -22.035  -6.020   8.155  1.00 30.94     0.177 C 
ENDROOT
BRANCH 155 156
ATOM    156  CB  GLN A 168     -23.054  -5.218   8.946  1.00 41.76     0.044 C 
BRANCH 156 157
ATOM    157  CG  GLN A 168     -24.481  -5.428   8.518  1.00 61.20     0.105 C 
BRANCH 157 158
ATOM    158  CD  GLN A 168     -24.979  -4.300   7.635  1.00 75.49     0.215 C 
ATOM    159  NE2 GLN A 168     -24.822  -4.467   6.321  1.00 85.00    -0.370 N 
ATOM    160  H06 GLN A 168     -25.131  -3.749   5.681  1.00 85.00     0.159 HD
ATOM    161  H07 GLN A 168     -24.393  -5.311   5.967  1.00 85.00     0.159 HD
ATOM    162  OE1 GLN A 168     -25.494  -3.285   8.125  1.00 73.64    -0.274 OA
ENDBRANCH 157 158
ENDBRANCH 156 157
ENDBRANCH 155 156
END_RES GLN A 168
ENDMDL
MODEL 8
REMARK VINA RESULT:      -6.3      1.363      2.913
REMARK  Name = human_CD1d_LDAO_pred.rank_0
REMARK  11 active torsions:
REMARK  status: ('A' for Active; 'I' for Inactive)
REMARK    1  A    between atoms: N_2  and  C_14
REMARK    2  A    between atoms: C_4  and  C_5
REMARK    3  A    between atoms: C_5  and  C_6
REMARK    4  A    between atoms: C_6  and  C_7
REMARK    5  A    between atoms: C_7  and  C_8
REMARK    6  A    between atoms: C_8  and  C_9
REMARK    7  A    between atoms: C_9  and  C_10
REMARK    8  A    between atoms: C_10  and  C_11
REMARK    9  A    between atoms: C_11  and  C_12
REMARK   10  A    between atoms: C_12  and  C_13
REMARK   11  A    between atoms: C_13  and  C_14
REMARK                            x       y       z     vdW  Elec       q    Type
REMARK                         _______ _______ _______ _____ _____    ______ ____
ROOT
ATOM      1  C   UNL     1     -13.152   2.280  15.063  0.00  0.00    +0.000 C 
ENDROOT
BRANCH   1   2
ATOM      2  C   UNL     1     -12.080   3.399  15.042  0.00  0.00    +0.000 C 
BRANCH   2   3
ATOM      3  C   UNL     1     -10.838   3.045  14.172  0.00  0.00    +0.000 C 
BRANCH   3   4
ATOM      4  C   UNL     1      -9.744   4.102  14.297  0.00  0.00    +0.000 C 
BRANCH   4   5
ATOM      5  C   UNL     1     -10.133   5.210  15.289  0.00  0.00    +0.000 C 
BRANCH   5   6
ATOM      6  C   UNL     1     -10.158   6.587  14.607  0.00  0.00    +0.000 C 
BRANCH   6   8
ATOM      7  C   UNL     1      -8.650   8.501  15.216  0.00  0.00    +0.000 C 
ATOM      8  C   UNL     1      -9.896   7.705  15.590  0.00  0.00    +0.000 C 
ENDBRANCH   6   8
ENDBRANCH   5   6
ENDBRANCH   4   5
ENDBRANCH   3   4
ENDBRANCH   2   3
ENDBRANCH   1   2
BRANCH   1   9
ATOM      9  C   UNL     1     -12.699   1.026  14.292  0.00  0.00    +0.000 C 
BRANCH   9  10
ATOM     10  C   UNL     1     -13.538  -0.199  14.676  0.00  0.00    +0.000 C 
BRANCH  10  11
ATOM     11  C   UNL     1     -13.680  -1.206  13.516  0.00  0.00    +0.000 C 
BRANCH  11  12
ATOM     12  C   UNL     1     -12.813  -0.824  12.314  0.00  0.00    +0.000 C 
BRANCH  12  13
ATOM     13  N   UNL     1     -13.661  -0.718  11.101  0.00  0.00    +0.000 N 
ATOM     14  O   UNL     1     -14.837  -1.312  11.293  0.00  0.00    +0.000 OA
ATOM     15  C   UNL     1     -13.892   0.715  10.838  0.00  0.00    +0.000 C 
ATOM     16  C   UNL     1     -12.979  -1.313   9.967  0.00  0.00    +0.000 C 
ENDBRANCH  12  13
ENDBRANCH  11  12
ENDBRANCH  10  11
ENDBRANCH   9  10
ENDBRANCH   1   9
TORSDOF 11
BEGIN_RES LEU A  10
REMARK  2 active torsions:
REMARK  status: ('A' for Active; 'I' for Inactive)
REMARK    1  A    between atoms: CA   and  CB  
REMARK    2  A    between atoms: CB   and  CG  
ROOT
ATOM      1  CA  LEU A  10     -10.775  -4.871   5.898  1.00 25.14     0.177 C 
ENDROOT
BRANCH   1   2
ATOM      2  CB  LEU A  10     -12.191  -4.387   6.226  1.00 17.87     0.038 C 
BRANCH   2   3
ATOM      3  CG  LEU A  10     -12.434  -2.903   5.943  1.00 24.95    -0.020 C 
ATOM      4  CD2 LEU A  10     -13.723  -2.493   6.571  1.00 26.38     0.009 C 
ATOM      5  CD1 LEU A  10     -12.456  -2.631   4.449  1.00 28.12     0.009 C 
ENDBRANCH   2   3
ENDBRANCH   1   2
END_RES LEU A  10
BEGIN_RES CYS A  12
REMARK  2 active torsions:
REMARK  status: ('A' for Active; 'I' for Inactive)
REMARK    3  A    between atoms: CA   and  CB  
REMARK    4  A    between atoms: CB   and  SG  
ROOT
ATOM      6  CA  CYS A  12      -8.555   0.470   8.750  1.00 23.16     0.185 C 
ENDROOT
BRANCH   6   7
ATOM      7  CB  CYS A  12      -9.828   0.763   9.555  1.00 20.43     0.105 C 
BRANCH   7   8
ATOM      8  SG  CYS A  12     -10.914   2.063   8.890  1.00 24.64    -0.180 SA
ATOM      9  H04 CYS A  12     -10.223   2.828   8.035  1.00 24.64     0.101 HD
ENDBRANCH   7   8
ENDBRANCH   6   7
END_RES CYS A  12
BEGIN_RES GLN A  14
REMARK  3 active torsions:
REMARK  status: ('A' for Active; 'I' for Inactive)
REMARK    5  A    between atoms: CA   and  CB  
REMARK    6  A    between atoms: CB   and  CG  
REMARK    7  A    between atoms: CG   and  CD  
REMARK       I    between atoms: CD   and  NE2 
ROOT
ATOM     10  CA  GLN A  14      -4.645   5.402  11.377  1.00 10.43     0.177 C 
ENDROOT
BRANCH  10  11
ATOM     11  CB  GLN A  14      -5.541   5.549  12.608  1.00 14.45     0.044 C 
BRANCH  11  12
ATOM     12  CG  GLN A  14      -6.536   6.683  12.515  1.00 13.74     0.105 C 
BRANCH  12  13
ATOM     13  CD  GLN A  14      -5.882   8.037  12.646  1.00 16.29     0.215 C 
ATOM     14  NE2 GLN A  14      -6.379   9.003  11.904  1.00  8.57    -0.370 N 
ATOM     15  H06 GLN A  14      -5.983   9.930  11.951  1.00  8.57     0.159 HD
ATOM     16  H07 GLN A  14      -7.157   8.816  11.288  1.00  8.57     0.159 HD
ATOM     17  OE1 GLN A  14      -4.944   8.213  13.408  1.00 23.55    -0.274 OA
ENDBRANCH  12  13
ENDBRANCH  11  12
ENDBRANCH  10  11
END_RES GLN A  14
BEGIN_RES SER A  16
REMARK  2 active torsions:
REMARK  status: ('A' for Active; 'I' for Inactive)
REMARK    8  A    between atoms: CA   and  CB  
REMARK    9  A    between atoms: CB   and  OG  
ROOT
ATOM     18  CA  SER A  16      -1.305  10.019  14.282  1.00  2.34     0.200 C 
ENDROOT
BRANCH  18  19
ATOM     19  CB  SER A  16      -2.242   9.935  15.479  1.00  3.12     0.199 C 
BRANCH  19  20
ATOM     20  OG  SER A  16      -2.317   8.602  15.953  1.00  1.00    -0.398 OA
ATOM     21  H04 SER A  16      -1.441   8.302  16.204  1.00  1.00     0.209 HD
ENDBRANCH  19  20
ENDBRANCH  18  19
END_RES SER A  16
BEGIN_RES LEU A  32
REMARK  2 active torsions:
REMARK  status: ('A' for Active; 'I' for Inactive)
REMARK   10  A    between atoms: CA   and  CB  
REMARK   11  A    between atoms: CB   and  CG  
ROOT
ATOM     22  CA  LEU A  32     -10.272  -4.106   1.587  1.00 16.16     0.177 C 
ENDROOT
BRANCH  22  23
ATOM     23  CB  LEU A  32     -11.613  -3.858   0.880  1.00 12.35     0.038 C 
BRANCH  23  24
ATOM     24  CG  LEU A  32     -12.499  -5.120   0.870  1.00  9.77    -0.020 C 
ATOM     25  CD1 LEU A  32     -12.987  -5.431   2.265  1.00  4.35     0.009 C 
ATOM     26  CD2 LEU A  32     -13.676  -4.943  -0.053  1.00 10.60     0.009 C 
ENDBRANCH  23  24
ENDBRANCH  22  23
END_RES LEU A  32
BEGIN_RES HIS A  38
REMARK  2 active torsions:
REMARK  status: ('A' for Active; 'I' for Inactive)
REMARK   12  A    between atoms: CA   and  CB  
REMARK   13  A    between atoms: CB   and  CG  
ROOT
ATOM     27  CA  HIS A  38     -10.959   4.941   1.621  1.00 16.94     0.182 C 
ENDROOT
BRANCH  27  28
ATOM     28  CB  HIS A  38     -11.810   4.840   2.881  1.00 15.47     0.095 C 
BRANCH  28  29
ATOM     29  CG  HIS A  38     -13.031   3.993   2.719  1.00 18.62     0.053 A 
ATOM     30  CD2 HIS A  38     -14.179   4.211   2.035  1.00 15.06     0.116 A 
ATOM     31  NE2 HIS A  38     -14.960   3.095   2.193  1.00 18.12    -0.359 N 
ATOM     32  CE1 HIS A  38     -14.317   2.224   2.947  1.00 14.78     0.207 A 
ATOM     33  H06 HIS A  38     -15.879   2.962   1.797  1.00 18.12     0.166 HD
ATOM     34  ND1 HIS A  38     -13.151   2.740   3.279  1.00 16.58    -0.247 NA
ENDBRANCH  28  29
ENDBRANCH  27  28
END_RES HIS A  38
BEGIN_RES TRP A  63
REMARK  2 active torsions:
REMARK  status: ('A' for Active; 'I' for Inactive)
REMARK   14  A    between atoms: CA   and  CB  
REMARK   15  A    between atoms: CB   and  CG  
ROOT
ATOM     35  CA  TRP A  63     -22.437   6.257   6.543  1.00 27.04     0.181 C 
ENDROOT
BRANCH  35  36
ATOM     36  CB  TRP A  63     -22.360   6.642   5.068  1.00 31.37     0.075 C 
BRANCH  36  37
ATOM     37  CG  TRP A  63     -20.953   6.798   4.531  1.00 34.37    -0.028 A 
ATOM     38  CD2 TRP A  63     -19.880   5.850   4.621  1.00 33.79    -0.002 A 
ATOM     39  CE3 TRP A  63     -19.737   4.598   5.222  1.00 32.99     0.014 A 
ATOM     40  CE2 TRP A  63     -18.782   6.396   3.920  1.00 35.84     0.042 A 
ATOM     41  CZ3 TRP A  63     -18.522   3.937   5.107  1.00 32.93     0.001 A 
ATOM     42  CH2 TRP A  63     -17.448   4.506   4.403  1.00 39.24     0.002 A 
ATOM     43  CZ2 TRP A  63     -17.560   5.732   3.803  1.00 37.99     0.030 A 
ATOM     44  NE1 TRP A  63     -19.173   7.612   3.432  1.00 37.98    -0.365 N 
ATOM     45  H06 TRP A  63     -18.599   8.238   2.886  1.00 37.98     0.165 HD
ATOM     46  CD1 TRP A  63     -20.475   7.844   3.806  1.00 38.16     0.096 A 
ENDBRANCH  36  37
ENDBRANCH  35  36
END_RES TRP A  63
BEGIN_RES LEU A  66
REMARK  2 active torsions:
REMARK  status: ('A' for Active; 'I' for Inactive)
REMARK   16  A    between atoms: CA   and  CB  
REMARK   17  A    between atoms: CB   and  CG  
ROOT
ATOM     47  CA  LEU A  66     -20.004   6.489  11.120  1.00 10.90     0.177 C 
ENDROOT
BRANCH  47  48
ATOM     48  CB  LEU A  66     -19.626   5.453  10.069  1.00 13.57     0.038 C 
BRANCH  48  49
ATOM     49  CG  LEU A  66     -19.448   4.011  10.541  1.00  8.73    -0.020 C 
ATOM     50  CD1 LEU A  66     -19.396   3.947  12.045  1.00 14.23     0.009 C 
ATOM     51  CD2 LEU A  66     -20.606   3.194  10.028  1.00  1.92     0.009 C 
ENDBRANCH  48  49
ENDBRANCH  47  48
END_RES LEU A  66
BEGIN_RES PHE A  70
REMARK  2 active torsions:
REMARK  status: ('A' for Active; 'I' for Inactive)
REMARK   18  A    between atoms: CA   and  CB  
REMARK   19  A    between atoms: CB   and  CG  
ROOT
ATOM     52  CA  PHE A  70     -14.974   9.434  13.165  1.00  8.78     0.180 C 
ENDROOT
BRANCH  52  53
ATOM     53  CB  PHE A  70     -14.707   9.132  11.681  1.00  6.33     0.073 C 
BRANCH  53  54
ATOM     54  CG  PHE A  70     -13.992   7.828  11.455  1.00  3.42    -0.056 A 
ATOM     55  CD1 PHE A  70     -13.566   7.051  12.522  1.00 13.88     0.007 A 
ATOM     56  CE1 PHE A  70     -12.857   5.857  12.304  1.00 12.71     0.001 A 
ATOM     57  CZ  PHE A  70     -12.572   5.437  11.005  1.00  4.21     0.000 A 
ATOM     58  CE2 PHE A  70     -12.993   6.202   9.933  1.00  2.83     0.001 A 
ATOM     59  CD2 PHE A  70     -13.701   7.394  10.161  1.00  1.00     0.007 A 
ENDBRANCH  53  54
ENDBRANCH  52  53
END_RES PHE A  70
BEGIN_RES TYR A  73
REMARK  3 active torsions:
REMARK  status: ('A' for Active; 'I' for Inactive)
REMARK   20  A    between atoms: CA   and  CB  
REMARK   21  A    between atoms: CB   and  CG  
REMARK   22  A    between atoms: CZ   and  OH  
ROOT
ATOM     60  CA  TYR A  73     -13.212  10.166  17.260  1.00 12.17     0.180 C 
ENDROOT
BRANCH  60  61
ATOM     61  CB  TYR A  73     -13.301   8.846  16.517  1.00 12.84     0.073 C 
BRANCH  61  62
ATOM     62  CG  TYR A  73     -13.550   7.686  17.416  1.00 15.89    -0.056 A 
ATOM     63  CD1 TYR A  73     -13.999   7.869  18.705  1.00 16.00     0.010 A 
ATOM     64  CE1 TYR A  73     -14.204   6.786  19.559  1.00 13.55     0.037 A 
ATOM     65  CZ  TYR A  73     -13.950   5.507  19.104  1.00 18.13     0.065 A 
ATOM     66  CE2 TYR A  73     -13.501   5.297  17.820  1.00 15.89     0.037 A 
ATOM     67  CD2 TYR A  73     -13.304   6.388  16.983  1.00 21.86     0.010 A 
BRANCH  65  68
ATOM     68  OH  TYR A  73     -14.149   4.425  19.925  1.00 12.12    -0.361 OA
ATOM     69  H08 TYR A  73     -13.375   3.858  19.903  1.00 12.12     0.217 HD
ENDBRANCH  65  68
ENDBRANCH  61  62
ENDBRANCH  60  61
END_RES TYR A  73
BEGIN_RES PHE A  77
REMARK  2 active torsions:
REMARK  status: ('A' for Active; 'I' for Inactive)
REMARK   23  A    between atoms: CA   and  CB  
REMARK   24  A    between atoms: CB   and  CG  
ROOT
ATOM     70  CA  PHE A  77      -8.400  10.581  20.110  1.00 17.17     0.180 C 
ENDROOT
BRANCH  70  71
ATOM     71  CB  PHE A  77      -8.228   9.750  18.851  1.00 10.44     0.073 C 
BRANCH  71  72
ATOM     72  CG  PHE A  77      -8.704   8.338  18.991  1.00  6.07    -0.056 A 
ATOM     73  CD2 PHE A  77      -7.847   7.285  18.763  1.00  9.61     0.007 A 
ATOM     74  CE2 PHE A  77      -8.279   5.971  18.892  1.00  1.00     0.001 A 
ATOM     75  CZ  PHE A  77      -9.588   5.707  19.258  1.00  1.92     0.000 A 
ATOM     76  CE1 PHE A  77     -10.458   6.748  19.491  1.00  9.25     0.001 A 
ATOM     77  CD1 PHE A  77     -10.011   8.063  19.356  1.00  9.63     0.007 A 
ENDBRANCH  71  72
ENDBRANCH  70  71
END_RES PHE A  77
BEGIN_RES LEU A  96
REMARK  2 active torsions:
REMARK  status: ('A' for Active; 'I' for Inactive)
REMARK   25  A    between atoms: CA   and  CB  
REMARK   26  A    between atoms: CB   and  CG  
ROOT
ATOM     78  CA  LEU A  96       0.717   6.481  17.359  1.00 16.08     0.177 C 
ENDROOT
BRANCH  78  79
ATOM     79  CB  LEU A  96      -0.370   7.101  18.230  1.00 18.83     0.038 C 
BRANCH  79  80
ATOM     80  CG  LEU A  96      -0.096   7.031  19.732  1.00 19.03    -0.020 C 
ATOM     81  CD1 LEU A  96       0.632   8.286  20.154  1.00 28.17     0.009 C 
ATOM     82  CD2 LEU A  96      -1.395   6.950  20.501  1.00 22.01     0.009 C 
ENDBRANCH  79  80
ENDBRANCH  78  79
END_RES LEU A  96
BEGIN_RES VAL A  98
REMARK  1 active torsions:
REMARK  status: ('A' for Active; 'I' for Inactive)
REMARK   27  A    between atoms: CA   and  CB  
ROOT
ATOM     83  CA  VAL A  98      -3.928   2.082  14.897  1.00 19.83     0.180 C 
ENDROOT
BRANCH  83  84
ATOM     84  CB  VAL A  98      -5.203   2.807  15.281  1.00 17.87     0.009 C 
ATOM     85  CG2 VAL A  98      -4.920   4.271  15.499  1.00 29.90     0.012 C 
ATOM     86  CG1 VAL A  98      -5.785   2.181  16.531  1.00 14.79     0.012 C 
ENDBRANCH  83  84
END_RES VAL A  98
BEGIN_RES ASN A 112
REMARK  2 active torsions:
REMARK  status: ('A' for Active; 'I' for Inactive)
REMARK   28  A    between atoms: CA   and  CB  
REMARK   29  A    between atoms: CB   and  CG  
REMARK       I    between atoms: CG   and  ND2 
ROOT
ATOM     87  CA  ASN A 112     -11.790  -8.793  14.069  1.00 37.70     0.185 C 
ENDROOT
BRANCH  87  88
ATOM     88  CB  ASN A 112     -12.992  -7.945  14.465  1.00 26.24     0.137 C 
BRANCH  88  89
ATOM     89  CG  ASN A 112     -13.785  -8.538  15.608  1.00 21.77     0.217 C 
ATOM     90  ND2 ASN A 112     -14.917  -9.160  15.279  1.00  9.31    -0.370 N 
ATOM     91  H04 ASN A 112     -15.492  -9.575  15.997  1.00  9.31     0.159 HD
ATOM     92  H05 ASN A 112     -15.199  -9.215  14.310  1.00  9.31     0.159 HD
ATOM     93  OD1 ASN A 112     -13.391  -8.436  16.776  1.00 21.61    -0.274 OA
ENDBRANCH  88  89
ENDBRANCH  87  88
END_RES ASN A 112
BEGIN_RES PHE A 114
REMARK  2 active torsions:
REMARK  status: ('A' for Active; 'I' for Inactive)
REMARK   30  A    between atoms: CA   and  CB  
REMARK   31  A    between atoms: CB   and  CG  
ROOT
ATOM     94  CA  PHE A 114      -7.754  -3.619  17.012  1.00 26.06     0.180 C 
ENDROOT
BRANCH  94  95
ATOM     95  CB  PHE A 114      -8.890  -3.080  17.867  1.00 19.95     0.073 C 
BRANCH  95  96
ATOM     96  CG  PHE A 114      -9.220  -1.651  17.581  1.00 17.65    -0.056 A 
ATOM     97  CD1 PHE A 114      -8.211  -0.711  17.390  1.00 13.01     0.007 A 
ATOM     98  CE1 PHE A 114      -8.516   0.623  17.154  1.00  6.74     0.001 A 
ATOM     99  CZ  PHE A 114      -9.844   1.036  17.102  1.00  6.27     0.000 A 
ATOM    100  CE2 PHE A 114     -10.857   0.109  17.289  1.00 17.36     0.001 A 
ATOM    101  CD2 PHE A 114     -10.542  -1.233  17.528  1.00 18.39     0.007 A 
ENDBRANCH  95  96
ENDBRANCH  94  95
END_RES PHE A 114
BEGIN_RES VAL A 116
REMARK  1 active torsions:
REMARK  status: ('A' for Active; 'I' for Inactive)
REMARK   32  A    between atoms: CA   and  CB  
ROOT
ATOM    102  CA  VAL A 116      -2.467   0.283  18.565  1.00 13.48     0.180 C 
ENDROOT
BRANCH 102 103
ATOM    103  CB  VAL A 116      -3.101   1.238  19.599  1.00 20.86     0.009 C 
ATOM    104  CG1 VAL A 116      -3.067   2.671  19.060  1.00 25.01     0.012 C 
ATOM    105  CG2 VAL A 116      -4.508   0.805  19.940  1.00 25.34     0.012 C 
ENDBRANCH 102 103
END_RES VAL A 116
BEGIN_RES ILE A 123
REMARK  2 active torsions:
REMARK  status: ('A' for Active; 'I' for Inactive)
REMARK   33  A    between atoms: CA   and  CB  
REMARK   34  A    between atoms: CB   and  CG1 
ROOT
ATOM    106  CA  ILE A 123       1.557  -1.626  23.222  1.00 15.07     0.180 C 
ENDROOT
BRANCH 106 107
ATOM    107  CB  ILE A 123       1.697  -0.112  23.461  1.00 14.41     0.013 C 
ATOM    108  CG2 ILE A 123       3.113   0.213  23.904  1.00 18.35     0.012 C 
BRANCH 107 109
ATOM    109  CG1 ILE A 123       1.351   0.660  22.190  1.00 15.23     0.002 C 
ATOM    110  CD1 ILE A 123       0.258   1.683  22.381  1.00 14.67     0.005 C 
ENDBRANCH 107 109
ENDBRANCH 106 107
END_RES ILE A 123
BEGIN_RES LEU A 124
REMARK  2 active torsions:
REMARK  status: ('A' for Active; 'I' for Inactive)
REMARK   35  A    between atoms: CA   and  CB  
REMARK   36  A    between atoms: CB   and  CG  
ROOT
ATOM    111  CA  LEU A 124      -2.057  -2.686  23.524  1.00 11.86     0.177 C 
ENDROOT
BRANCH 111 112
ATOM    112  CB  LEU A 124      -2.698  -1.652  24.429  1.00 14.60     0.038 C 
BRANCH 112 113
ATOM    113  CG  LEU A 124      -2.629  -0.252  23.837  1.00 16.19    -0.020 C 
ATOM    114  CD1 LEU A 124      -4.050   0.201  23.452  1.00 22.07     0.009 C 
ATOM    115  CD2 LEU A 124      -1.990   0.683  24.832  1.00  9.12     0.009 C 
ENDBRANCH 112 113
ENDBRANCH 111 112
END_RES LEU A 124
BEGIN_RES PHE A 126
REMARK  2 active torsions:
REMARK  status: ('A' for Active; 'I' for Inactive)
REMARK   37  A    between atoms: CA   and  CB  
REMARK   38  A    between atoms: CB   and  CG  
ROOT
ATOM    116  CA  PHE A 126      -8.784  -4.792  22.233  1.00 23.15     0.180 C 
ENDROOT
BRANCH 116 117
ATOM    117  CB  PHE A 126      -9.823  -4.011  21.461  1.00 20.65     0.073 C 
BRANCH 117 118
ATOM    118  CG  PHE A 126     -10.943  -3.532  22.299  1.00 23.65    -0.056 A 
ATOM    119  CD2 PHE A 126     -12.205  -4.088  22.176  1.00 36.63     0.007 A 
ATOM    120  CE2 PHE A 126     -13.265  -3.635  22.972  1.00 36.27     0.001 A 
ATOM    121  CZ  PHE A 126     -13.054  -2.619  23.892  1.00 18.06     0.000 A 
ATOM    122  CE1 PHE A 126     -11.797  -2.063  24.019  1.00  5.50     0.001 A 
ATOM    123  CD1 PHE A 126     -10.746  -2.523  23.225  1.00 15.29     0.007 A 
ENDBRANCH 117 118
ENDBRANCH 116 117
END_RES PHE A 126
BEGIN_RES TRP A 131
REMARK  2 active torsions:
REMARK  status: ('A' for Active; 'I' for Inactive)
REMARK   39  A    between atoms: CA   and  CB  
REMARK   40  A    between atoms: CB   and  CG  
ROOT
ATOM    124  CA  TRP A 131      -8.096  -3.335  26.542  1.00 14.52     0.181 C 
ENDROOT
BRANCH 124 125
ATOM    125  CB  TRP A 131      -7.651  -1.877  26.607  1.00 13.06     0.075 C 
BRANCH 125 126
ATOM    126  CG  TRP A 131      -8.033  -1.056  25.395  1.00 16.97    -0.028 A 
ATOM    127  CD2 TRP A 131      -9.106  -0.115  25.308  1.00 11.34    -0.002 A 
ATOM    128  CE2 TRP A 131      -9.095   0.420  24.005  1.00  5.87     0.042 A 
ATOM    129  CE3 TRP A 131     -10.079   0.327  26.211  1.00  3.80     0.014 A 
ATOM    130  CZ2 TRP A 131     -10.018   1.378  23.582  1.00  1.35     0.030 A 
ATOM    131  NE1 TRP A 131      -8.063  -0.170  23.327  1.00 13.90    -0.365 N 
ATOM    132  CH2 TRP A 131     -10.960   1.795  24.490  1.00  1.00     0.002 A 
ATOM    133  CZ3 TRP A 131     -10.997   1.275  25.797  1.00  1.00     0.001 A 
ATOM    134  CD1 TRP A 131      -7.429  -1.055  24.168  1.00 17.22     0.096 A 
ATOM    135  H07 TRP A 131      -7.808   0.014  22.368  1.00 13.90     0.165 HD
ENDBRANCH 125 126
ENDBRANCH 124 125
END_RES TRP A 131
BEGIN_RES LEU A 148
REMARK  2 active torsions:
REMARK  status: ('A' for Active; 'I' for Inactive)
REMARK   41  A    between atoms: CA   and  CB  
REMARK   42  A    between atoms: CB   and  CG  
ROOT
ATOM    136  CA  LEU A 148      -9.018   3.259  29.295  1.00 16.99     0.177 C 
ENDROOT
BRANCH 136 137
ATOM    137  CB  LEU A 148      -8.166   2.574  28.236  1.00  6.39     0.038 C 
BRANCH 137 138
ATOM    138  CG  LEU A 148      -7.528   3.366  27.113  1.00  1.00    -0.020 C 
ATOM    139  CD2 LEU A 148      -8.584   4.042  26.287  1.00  1.00     0.009 C 
ATOM    140  CD1 LEU A 148      -6.714   2.410  26.260  1.00  2.71     0.009 C 
ENDBRANCH 137 138
ENDBRANCH 136 137
END_RES LEU A 148
BEGIN_RES THR A 154
REMARK  2 active torsions:
REMARK  status: ('A' for Active; 'I' for Inactive)
REMARK   43  A    between atoms: CA   and  CB  
REMARK   44  A    between atoms: CB   and  OG1 
ROOT
ATOM    141  CA  THR A 154     -15.990   3.959  24.426  1.00 20.45     0.205 C 
ENDROOT
BRANCH 141 142
ATOM    142  CB  THR A 154     -14.777   4.829  24.694  1.00 16.79     0.146 C 
ATOM    143  CG2 THR A 154     -13.719   4.593  23.634  1.00 20.24     0.042 C 
BRANCH 142 144
ATOM    144  OG1 THR A 154     -15.174   6.205  24.653  1.00 18.84    -0.393 OA
ATOM    145  H06 THR A 154     -14.995   6.565  23.781  1.00 18.84     0.210 HD
ENDBRANCH 142 144
ENDBRANCH 141 142
END_RES THR A 154
BEGIN_RES VAL A 158
REMARK  1 active torsions:
REMARK  status: ('A' for Active; 'I' for Inactive)
REMARK   45  A    between atoms: CA   and  CB  
ROOT
ATOM    146  CA  VAL A 158     -15.487  -0.189  19.892  1.00 15.49     0.180 C 
ENDROOT
BRANCH 146 147
ATOM    147  CB  VAL A 158     -14.291  -0.273  20.822  1.00  6.52     0.009 C 
ATOM    148  CG1 VAL A 158     -13.240  -1.206  20.266  1.00  1.00     0.012 C 
ATOM    149  CG2 VAL A 158     -13.731   1.103  21.010  1.00  5.99     0.012 C 
ENDBRANCH 146 147
END_RES VAL A 158
BEGIN_RES LEU A 161
REMARK  2 active torsions:
REMARK  status: ('A' for Active; 'I' for Inactive)
REMARK   46  A    between atoms: CA   and  CB  
REMARK   47  A    between atoms: CB   and  CG  
ROOT
ATOM    150  CA  LEU A 161     -18.031  -1.858  15.935  1.00 13.31     0.177 C 
ENDROOT
BRANCH 150 151
ATOM    151  CB  LEU A 161     -17.046  -0.706  16.001  1.00 14.13     0.038 C 
BRANCH 151 152
ATOM    152  CG  LEU A 161     -17.386   0.521  15.165  1.00 19.39    -0.020 C 
ATOM    153  CD2 LEU A 161     -18.818   0.935  15.403  1.00 27.75     0.009 C 
ATOM    154  CD1 LEU A 161     -17.180   0.192  13.711  1.00 18.59     0.009 C 
ENDBRANCH 151 152
ENDBRANCH 150 151
END_RES LEU A 161
BEGIN_RES GLN A 168
REMARK  3 active torsions:
REMARK  status: ('A' for Active; 'I' for Inactive)
REMARK   48  A    between atoms: CA   and  CB  
REMARK   49  A    between atoms: CB   and  CG  
REMARK   50  A    between atoms: CG   and  CD  
REMARK       I    between atoms: CD   and  NE2 
ROOT
ATOM    155  CA  GLN A 168     -22.035  -6.020   8.155  1.00 30.94     0.177 C 
ENDROOT
BRANCH 155 156
ATOM    156  CB  GLN A 168     -23.054  -5.218   8.946  1.00 41.76     0.044 C 
BRANCH 156 157
ATOM    157  CG  GLN A 168     -24.483  -5.440   8.529  1.00 61.20     0.105 C 
BRANCH 157 158
ATOM    158  CD  GLN A 168     -24.998  -4.312   7.656  1.00 75.49     0.215 C 
ATOM    159  NE2 GLN A 168     -24.817  -4.453   6.342  1.00 85.00    -0.370 N 
ATOM    160  H06 GLN A 168     -25.137  -3.735   5.708  1.00 85.00     0.159 HD
ATOM    161  H07 GLN A 168     -24.360  -5.279   5.981  1.00 85.00     0.159 HD
ATOM    162  OE1 GLN A 168     -25.549  -3.320   8.153  1.00 73.64    -0.274 OA
ENDBRANCH 157 158
ENDBRANCH 156 157
ENDBRANCH 155 156
END_RES GLN A 168
ENDMDL
MODEL 9
REMARK VINA RESULT:      -6.2      1.256      2.065
REMARK  Name = human_CD1d_LDAO_pred.rank_0
REMARK  11 active torsions:
REMARK  status: ('A' for Active; 'I' for Inactive)
REMARK    1  A    between atoms: N_2  and  C_14
REMARK    2  A    between atoms: C_4  and  C_5
REMARK    3  A    between atoms: C_5  and  C_6
REMARK    4  A    between atoms: C_6  and  C_7
REMARK    5  A    between atoms: C_7  and  C_8
REMARK    6  A    between atoms: C_8  and  C_9
REMARK    7  A    between atoms: C_9  and  C_10
REMARK    8  A    between atoms: C_10  and  C_11
REMARK    9  A    between atoms: C_11  and  C_12
REMARK   10  A    between atoms: C_12  and  C_13
REMARK   11  A    between atoms: C_13  and  C_14
REMARK                            x       y       z     vdW  Elec       q    Type
REMARK                         _______ _______ _______ _____ _____    ______ ____
ROOT
ATOM      1  C   UNL     1     -13.921   2.667  15.307  0.00  0.00    +0.000 C 
ENDROOT
BRANCH   1   2
ATOM      2  C   UNL     1     -14.003   3.828  14.282  0.00  0.00    +0.000 C 
BRANCH   2   3
ATOM      3  C   UNL     1     -15.443   4.073  13.745  0.00  0.00    +0.000 C 
BRANCH   3   4
ATOM      4  C   UNL     1     -15.566   3.694  12.272  0.00  0.00    +0.000 C 
BRANCH   4   5
ATOM      5  C   UNL     1     -16.102   4.861  11.426  0.00  0.00    +0.000 C 
BRANCH   5   6
ATOM      6  C   UNL     1     -16.039   4.537   9.924  0.00  0.00    +0.000 C 
BRANCH   6   8
ATOM      7  C   UNL     1     -15.861   5.652   7.680  0.00  0.00    +0.000 C 
ATOM      8  C   UNL     1     -16.468   5.713   9.078  0.00  0.00    +0.000 C 
ENDBRANCH   6   8
ENDBRANCH   5   6
ENDBRANCH   4   5
ENDBRANCH   3   4
ENDBRANCH   2   3
ENDBRANCH   1   2
BRANCH   1   9
ATOM      9  C   UNL     1     -13.291   1.400  14.702  0.00  0.00    +0.000 C 
BRANCH   9  10
ATOM     10  C   UNL     1     -12.087   1.743  13.816  0.00  0.00    +0.000 C 
BRANCH  10  11
ATOM     11  C   UNL     1     -12.203   1.141  12.401  0.00  0.00    +0.000 C 
BRANCH  11  12
ATOM     12  C   UNL     1     -13.595   0.567  12.132  0.00  0.00    +0.000 C 
BRANCH  12  13
ATOM     13  N   UNL     1     -13.481  -0.860  11.739  0.00  0.00    +0.000 N 
ATOM     14  O   UNL     1     -12.203  -1.227  11.667  0.00  0.00    +0.000 OA
ATOM     15  C   UNL     1     -14.148  -1.668  12.776  0.00  0.00    +0.000 C 
ATOM     16  C   UNL     1     -14.136  -1.076  10.463  0.00  0.00    +0.000 C 
ENDBRANCH  12  13
ENDBRANCH  11  12
ENDBRANCH  10  11
ENDBRANCH   9  10
ENDBRANCH   1   9
TORSDOF 11
BEGIN_RES LEU A  10
REMARK  2 active torsions:
REMARK  status: ('A' for Active; 'I' for Inactive)
REMARK    1  A    between atoms: CA   and  CB  
REMARK    2  A    between atoms: CB   and  CG  
ROOT
ATOM      1  CA  LEU A  10     -10.775  -4.871   5.898  1.00 25.14     0.177 C 
ENDROOT
BRANCH   1   2
ATOM      2  CB  LEU A  10     -12.191  -4.387   6.226  1.00 17.87     0.038 C 
BRANCH   2   3
ATOM      3  CG  LEU A  10     -12.383  -2.873   6.118  1.00 24.95    -0.020 C 
ATOM      4  CD2 LEU A  10     -13.662  -2.496   6.787  1.00 26.38     0.009 C 
ATOM      5  CD1 LEU A  10     -12.387  -2.428   4.666  1.00 28.12     0.009 C 
ENDBRANCH   2   3
ENDBRANCH   1   2
END_RES LEU A  10
BEGIN_RES CYS A  12
REMARK  2 active torsions:
REMARK  status: ('A' for Active; 'I' for Inactive)
REMARK    3  A    between atoms: CA   and  CB  
REMARK    4  A    between atoms: CB   and  SG  
ROOT
ATOM      6  CA  CYS A  12      -8.555   0.470   8.750  1.00 23.16     0.185 C 
ENDROOT
BRANCH   6   7
ATOM      7  CB  CYS A  12      -9.828   0.763   9.555  1.00 20.43     0.105 C 
BRANCH   7   8
ATOM      8  SG  CYS A  12     -11.369   0.893   8.596  1.00 24.64    -0.180 SA
ATOM      9  H04 CYS A  12     -11.750   2.175   8.533  1.00 24.64     0.101 HD
ENDBRANCH   7   8
ENDBRANCH   6   7
END_RES CYS A  12
BEGIN_RES GLN A  14
REMARK  3 active torsions:
REMARK  status: ('A' for Active; 'I' for Inactive)
REMARK    5  A    between atoms: CA   and  CB  
REMARK    6  A    between atoms: CB   and  CG  
REMARK    7  A    between atoms: CG   and  CD  
REMARK       I    between atoms: CD   and  NE2 
ROOT
ATOM     10  CA  GLN A  14      -4.645   5.402  11.377  1.00 10.43     0.177 C 
ENDROOT
BRANCH  10  11
ATOM     11  CB  GLN A  14      -5.541   5.549  12.608  1.00 14.45     0.044 C 
BRANCH  11  12
ATOM     12  CG  GLN A  14      -6.544   6.675  12.510  1.00 13.74     0.105 C 
BRANCH  12  13
ATOM     13  CD  GLN A  14      -5.897   8.035  12.611  1.00 16.29     0.215 C 
ATOM     14  NE2 GLN A  14      -6.441   8.998  11.899  1.00  8.57    -0.370 N 
ATOM     15  H06 GLN A  14      -6.052   9.929  11.928  1.00  8.57     0.159 HD
ATOM     16  H07 GLN A  14      -7.249   8.806  11.323  1.00  8.57     0.159 HD
ATOM     17  OE1 GLN A  14      -4.922   8.218  13.323  1.00 23.55    -0.274 OA
ENDBRANCH  12  13
ENDBRANCH  11  12
ENDBRANCH  10  11
END_RES GLN A  14
BEGIN_RES SER A  16
REMARK  2 active torsions:
REMARK  status: ('A' for Active; 'I' for Inactive)
REMARK    8  A    between atoms: CA   and  CB  
REMARK    9  A    between atoms: CB   and  OG  
ROOT
ATOM     18  CA  SER A  16      -1.305  10.019  14.282  1.00  2.34     0.200 C 
ENDROOT
BRANCH  18  19
ATOM     19  CB  SER A  16      -2.242   9.935  15.479  1.00  3.12     0.199 C 
BRANCH  19  20
ATOM     20  OG  SER A  16      -2.143   8.663  16.094  1.00  1.00    -0.398 OA
ATOM     21  H04 SER A  16      -1.882   8.010  15.440  1.00  1.00     0.209 HD
ENDBRANCH  19  20
ENDBRANCH  18  19
END_RES SER A  16
BEGIN_RES LEU A  32
REMARK  2 active torsions:
REMARK  status: ('A' for Active; 'I' for Inactive)
REMARK   10  A    between atoms: CA   and  CB  
REMARK   11  A    between atoms: CB   and  CG  
ROOT
ATOM     22  CA  LEU A  32     -10.272  -4.106   1.587  1.00 16.16     0.177 C 
ENDROOT
BRANCH  22  23
ATOM     23  CB  LEU A  32     -11.613  -3.858   0.880  1.00 12.35     0.038 C 
BRANCH  23  24
ATOM     24  CG  LEU A  32     -12.582  -5.045   1.054  1.00  9.77    -0.020 C 
ATOM     25  CD1 LEU A  32     -13.021  -5.158   2.495  1.00  4.35     0.009 C 
ATOM     26  CD2 LEU A  32     -13.788  -4.888   0.166  1.00 10.60     0.009 C 
ENDBRANCH  23  24
ENDBRANCH  22  23
END_RES LEU A  32
BEGIN_RES HIS A  38
REMARK  2 active torsions:
REMARK  status: ('A' for Active; 'I' for Inactive)
REMARK   12  A    between atoms: CA   and  CB  
REMARK   13  A    between atoms: CB   and  CG  
ROOT
ATOM     27  CA  HIS A  38     -10.959   4.941   1.621  1.00 16.94     0.182 C 
ENDROOT
BRANCH  27  28
ATOM     28  CB  HIS A  38     -11.810   4.840   2.881  1.00 15.47     0.095 C 
BRANCH  28  29
ATOM     29  CG  HIS A  38     -13.000   3.947   2.736  1.00 18.62     0.053 A 
ATOM     30  CD2 HIS A  38     -14.166   4.122   2.069  1.00 15.06     0.116 A 
ATOM     31  NE2 HIS A  38     -14.901   2.977   2.238  1.00 18.12    -0.359 N 
ATOM     32  CE1 HIS A  38     -14.214   2.130   2.981  1.00 14.78     0.207 A 
ATOM     33  H06 HIS A  38     -15.821   2.809   1.855  1.00 18.12     0.166 HD
ATOM     34  ND1 HIS A  38     -13.064   2.690   3.296  1.00 16.58    -0.247 NA
ENDBRANCH  28  29
ENDBRANCH  27  28
END_RES HIS A  38
BEGIN_RES TRP A  63
REMARK  2 active torsions:
REMARK  status: ('A' for Active; 'I' for Inactive)
REMARK   14  A    between atoms: CA   and  CB  
REMARK   15  A    between atoms: CB   and  CG  
ROOT
ATOM     35  CA  TRP A  63     -22.437   6.257   6.543  1.00 27.04     0.181 C 
ENDROOT
BRANCH  35  36
ATOM     36  CB  TRP A  63     -22.360   6.642   5.068  1.00 31.37     0.075 C 
BRANCH  36  37
ATOM     37  CG  TRP A  63     -20.953   6.744   4.517  1.00 34.37    -0.028 A 
ATOM     38  CD2 TRP A  63     -19.890   5.793   4.671  1.00 33.79    -0.002 A 
ATOM     39  CE3 TRP A  63     -19.758   4.585   5.358  1.00 32.99     0.014 A 
ATOM     40  CE2 TRP A  63     -18.789   6.275   3.929  1.00 35.84     0.042 A 
ATOM     41  CZ3 TRP A  63     -18.551   3.905   5.286  1.00 32.93     0.001 A 
ATOM     42  CH2 TRP A  63     -17.474   4.411   4.541  1.00 39.24     0.002 A 
ATOM     43  CZ2 TRP A  63     -17.575   5.592   3.855  1.00 37.99     0.030 A 
ATOM     44  NE1 TRP A  63     -19.170   7.459   3.358  1.00 37.98    -0.365 N 
ATOM     45  H06 TRP A  63     -18.590   8.039   2.767  1.00 37.98     0.165 HD
ATOM     46  CD1 TRP A  63     -20.467   7.731   3.718  1.00 38.16     0.096 A 
ENDBRANCH  36  37
ENDBRANCH  35  36
END_RES TRP A  63
BEGIN_RES LEU A  66
REMARK  2 active torsions:
REMARK  status: ('A' for Active; 'I' for Inactive)
REMARK   16  A    between atoms: CA   and  CB  
REMARK   17  A    between atoms: CB   and  CG  
ROOT
ATOM     47  CA  LEU A  66     -20.004   6.489  11.120  1.00 10.90     0.177 C 
ENDROOT
BRANCH  47  48
ATOM     48  CB  LEU A  66     -19.626   5.453  10.069  1.00 13.57     0.038 C 
BRANCH  48  49
ATOM     49  CG  LEU A  66     -19.992   3.998  10.358  1.00  8.73    -0.020 C 
ATOM     50  CD1 LEU A  66     -19.391   3.083   9.322  1.00 14.23     0.009 C 
ATOM     51  CD2 LEU A  66     -19.475   3.638  11.727  1.00  1.92     0.009 C 
ENDBRANCH  48  49
ENDBRANCH  47  48
END_RES LEU A  66
BEGIN_RES PHE A  70
REMARK  2 active torsions:
REMARK  status: ('A' for Active; 'I' for Inactive)
REMARK   18  A    between atoms: CA   and  CB  
REMARK   19  A    between atoms: CB   and  CG  
ROOT
ATOM     52  CA  PHE A  70     -14.974   9.434  13.165  1.00  8.78     0.180 C 
ENDROOT
BRANCH  52  53
ATOM     53  CB  PHE A  70     -14.707   9.132  11.681  1.00  6.33     0.073 C 
BRANCH  53  54
ATOM     54  CG  PHE A  70     -13.873   7.899  11.462  1.00  3.42    -0.056 A 
ATOM     55  CD1 PHE A  70     -13.620   7.424  10.184  1.00 13.88     0.007 A 
ATOM     56  CE1 PHE A  70     -12.880   6.245   9.988  1.00 12.71     0.001 A 
ATOM     57  CZ  PHE A  70     -12.388   5.535  11.084  1.00  4.21     0.000 A 
ATOM     58  CE2 PHE A  70     -12.632   6.000  12.363  1.00  2.83     0.001 A 
ATOM     59  CD2 PHE A  70     -13.373   7.180  12.548  1.00  1.00     0.007 A 
ENDBRANCH  53  54
ENDBRANCH  52  53
END_RES PHE A  70
BEGIN_RES TYR A  73
REMARK  3 active torsions:
REMARK  status: ('A' for Active; 'I' for Inactive)
REMARK   20  A    between atoms: CA   and  CB  
REMARK   21  A    between atoms: CB   and  CG  
REMARK   22  A    between atoms: CZ   and  OH  
ROOT
ATOM     60  CA  TYR A  73     -13.212  10.166  17.260  1.00 12.17     0.180 C 
ENDROOT
BRANCH  60  61
ATOM     61  CB  TYR A  73     -13.301   8.846  16.517  1.00 12.84     0.073 C 
BRANCH  61  62
ATOM     62  CG  TYR A  73     -13.426   7.673  17.425  1.00 15.89    -0.056 A 
ATOM     63  CD1 TYR A  73     -13.652   6.409  16.926  1.00 16.00     0.010 A 
ATOM     64  CE1 TYR A  73     -13.800   5.313  17.776  1.00 13.55     0.037 A 
ATOM     65  CZ  TYR A  73     -13.720   5.500  19.142  1.00 18.13     0.065 A 
ATOM     66  CE2 TYR A  73     -13.494   6.752  19.665  1.00 15.89     0.037 A 
ATOM     67  CD2 TYR A  73     -13.348   7.832  18.804  1.00 21.86     0.010 A 
BRANCH  65  68
ATOM     68  OH  TYR A  73     -13.857   4.435  19.997  1.00 12.12    -0.361 OA
ATOM     69  H08 TYR A  73     -13.253   4.538  20.737  1.00 12.12     0.217 HD
ENDBRANCH  65  68
ENDBRANCH  61  62
ENDBRANCH  60  61
END_RES TYR A  73
BEGIN_RES PHE A  77
REMARK  2 active torsions:
REMARK  status: ('A' for Active; 'I' for Inactive)
REMARK   23  A    between atoms: CA   and  CB  
REMARK   24  A    between atoms: CB   and  CG  
ROOT
ATOM     70  CA  PHE A  77      -8.400  10.581  20.110  1.00 17.17     0.180 C 
ENDROOT
BRANCH  70  71
ATOM     71  CB  PHE A  77      -8.228   9.750  18.851  1.00 10.44     0.073 C 
BRANCH  71  72
ATOM     72  CG  PHE A  77      -8.853   8.393  18.934  1.00  6.07    -0.056 A 
ATOM     73  CD2 PHE A  77      -8.948   7.740  20.142  1.00  9.61     0.007 A 
ATOM     74  CE2 PHE A  77      -9.529   6.480  20.229  1.00  1.00     0.001 A 
ATOM     75  CZ  PHE A  77     -10.023   5.866  19.091  1.00  1.92     0.000 A 
ATOM     76  CE1 PHE A  77      -9.937   6.507  17.875  1.00  9.25     0.001 A 
ATOM     77  CD1 PHE A  77      -9.350   7.770  17.802  1.00  9.63     0.007 A 
ENDBRANCH  71  72
ENDBRANCH  70  71
END_RES PHE A  77
BEGIN_RES LEU A  96
REMARK  2 active torsions:
REMARK  status: ('A' for Active; 'I' for Inactive)
REMARK   25  A    between atoms: CA   and  CB  
REMARK   26  A    between atoms: CB   and  CG  
ROOT
ATOM     78  CA  LEU A  96       0.717   6.481  17.359  1.00 16.08     0.177 C 
ENDROOT
BRANCH  78  79
ATOM     79  CB  LEU A  96      -0.370   7.101  18.230  1.00 18.83     0.038 C 
BRANCH  79  80
ATOM     80  CG  LEU A  96      -0.948   6.162  19.289  1.00 19.03    -0.020 C 
ATOM     81  CD1 LEU A  96       0.173   5.687  20.184  1.00 28.17     0.009 C 
ATOM     82  CD2 LEU A  96      -1.964   6.888  20.139  1.00 22.01     0.009 C 
ENDBRANCH  79  80
ENDBRANCH  78  79
END_RES LEU A  96
BEGIN_RES VAL A  98
REMARK  1 active torsions:
REMARK  status: ('A' for Active; 'I' for Inactive)
REMARK   27  A    between atoms: CA   and  CB  
ROOT
ATOM     83  CA  VAL A  98      -3.928   2.082  14.897  1.00 19.83     0.180 C 
ENDROOT
BRANCH  83  84
ATOM     84  CB  VAL A  98      -5.203   2.807  15.281  1.00 17.87     0.009 C 
ATOM     85  CG2 VAL A  98      -4.921   4.272  15.492  1.00 29.90     0.012 C 
ATOM     86  CG1 VAL A  98      -5.781   2.185  16.535  1.00 14.79     0.012 C 
ENDBRANCH  83  84
END_RES VAL A  98
BEGIN_RES ASN A 112
REMARK  2 active torsions:
REMARK  status: ('A' for Active; 'I' for Inactive)
REMARK   28  A    between atoms: CA   and  CB  
REMARK   29  A    between atoms: CB   and  CG  
REMARK       I    between atoms: CG   and  ND2 
ROOT
ATOM     87  CA  ASN A 112     -11.790  -8.793  14.069  1.00 37.70     0.185 C 
ENDROOT
BRANCH  87  88
ATOM     88  CB  ASN A 112     -12.992  -7.945  14.465  1.00 26.24     0.137 C 
BRANCH  88  89
ATOM     89  CG  ASN A 112     -13.815  -8.564  15.572  1.00 21.77     0.217 C 
ATOM     90  ND2 ASN A 112     -14.964  -9.130  15.205  1.00  9.31    -0.370 N 
ATOM     91  H04 ASN A 112     -15.561  -9.559  15.898  1.00  9.31     0.159 HD
ATOM     92  H05 ASN A 112     -15.239  -9.130  14.233  1.00  9.31     0.159 HD
ATOM     93  OD1 ASN A 112     -13.428  -8.532  16.747  1.00 21.61    -0.274 OA
ENDBRANCH  88  89
ENDBRANCH  87  88
END_RES ASN A 112
BEGIN_RES PHE A 114
REMARK  2 active torsions:
REMARK  status: ('A' for Active; 'I' for Inactive)
REMARK   30  A    between atoms: CA   and  CB  
REMARK   31  A    between atoms: CB   and  CG  
ROOT
ATOM     94  CA  PHE A 114      -7.754  -3.619  17.012  1.00 26.06     0.180 C 
ENDROOT
BRANCH  94  95
ATOM     95  CB  PHE A 114      -8.890  -3.080  17.867  1.00 19.95     0.073 C 
BRANCH  95  96
ATOM     96  CG  PHE A 114      -9.233  -1.657  17.567  1.00 17.65    -0.056 A 
ATOM     97  CD1 PHE A 114      -8.236  -0.693  17.446  1.00 13.01     0.007 A 
ATOM     98  CE1 PHE A 114      -8.555   0.635  17.197  1.00  6.74     0.001 A 
ATOM     99  CZ  PHE A 114      -9.886   1.018  17.061  1.00  6.27     0.000 A 
ATOM    100  CE2 PHE A 114     -10.888   0.068  17.178  1.00 17.36     0.001 A 
ATOM    101  CD2 PHE A 114     -10.559  -1.268  17.431  1.00 18.39     0.007 A 
ENDBRANCH  95  96
ENDBRANCH  94  95
END_RES PHE A 114
BEGIN_RES VAL A 116
REMARK  1 active torsions:
REMARK  status: ('A' for Active; 'I' for Inactive)
REMARK   32  A    between atoms: CA   and  CB  
ROOT
ATOM    102  CA  VAL A 116      -2.467   0.283  18.565  1.00 13.48     0.180 C 
ENDROOT
BRANCH 102 103
ATOM    103  CB  VAL A 116      -3.101   1.238  19.599  1.00 20.86     0.009 C 
ATOM    104  CG1 VAL A 116      -3.006   2.679  19.091  1.00 25.01     0.012 C 
ATOM    105  CG2 VAL A 116      -4.530   0.844  19.890  1.00 25.34     0.012 C 
ENDBRANCH 102 103
END_RES VAL A 116
BEGIN_RES ILE A 123
REMARK  2 active torsions:
REMARK  status: ('A' for Active; 'I' for Inactive)
REMARK   33  A    between atoms: CA   and  CB  
REMARK   34  A    between atoms: CB   and  CG1 
ROOT
ATOM    106  CA  ILE A 123       1.557  -1.626  23.222  1.00 15.07     0.180 C 
ENDROOT
BRANCH 106 107
ATOM    107  CB  ILE A 123       1.697  -0.112  23.461  1.00 14.41     0.013 C 
ATOM    108  CG2 ILE A 123       3.088   0.203  23.982  1.00 18.35     0.012 C 
BRANCH 107 109
ATOM    109  CG1 ILE A 123       1.431   0.656  22.168  1.00 15.23     0.002 C 
ATOM    110  CD1 ILE A 123       0.196   1.521  22.221  1.00 14.67     0.005 C 
ENDBRANCH 107 109
ENDBRANCH 106 107
END_RES ILE A 123
BEGIN_RES LEU A 124
REMARK  2 active torsions:
REMARK  status: ('A' for Active; 'I' for Inactive)
REMARK   35  A    between atoms: CA   and  CB  
REMARK   36  A    between atoms: CB   and  CG  
ROOT
ATOM    111  CA  LEU A 124      -2.057  -2.686  23.524  1.00 11.86     0.177 C 
ENDROOT
BRANCH 111 112
ATOM    112  CB  LEU A 124      -2.698  -1.652  24.429  1.00 14.60     0.038 C 
BRANCH 112 113
ATOM    113  CG  LEU A 124      -2.627  -0.252  23.838  1.00 16.19    -0.020 C 
ATOM    114  CD1 LEU A 124      -4.047   0.201  23.448  1.00 22.07     0.009 C 
ATOM    115  CD2 LEU A 124      -1.992   0.683  24.836  1.00  9.12     0.009 C 
ENDBRANCH 112 113
ENDBRANCH 111 112
END_RES LEU A 124
BEGIN_RES PHE A 126
REMARK  2 active torsions:
REMARK  status: ('A' for Active; 'I' for Inactive)
REMARK   37  A    between atoms: CA   and  CB  
REMARK   38  A    between atoms: CB   and  CG  
ROOT
ATOM    116  CA  PHE A 126      -8.784  -4.792  22.233  1.00 23.15     0.180 C 
ENDROOT
BRANCH 116 117
ATOM    117  CB  PHE A 126      -9.823  -4.011  21.461  1.00 20.65     0.073 C 
BRANCH 117 118
ATOM    118  CG  PHE A 126     -10.953  -3.548  22.295  1.00 23.65    -0.056 A 
ATOM    119  CD2 PHE A 126     -10.773  -2.548  23.234  1.00 36.63     0.007 A 
ATOM    120  CE2 PHE A 126     -11.845  -2.109  24.024  1.00 36.27     0.001 A 
ATOM    121  CZ  PHE A 126     -13.099  -2.680  23.866  1.00 18.06     0.000 A 
ATOM    122  CE1 PHE A 126     -13.282  -3.677  22.929  1.00  5.50     0.001 A 
ATOM    123  CD1 PHE A 126     -12.211  -4.105  22.146  1.00 15.29     0.007 A 
ENDBRANCH 117 118
ENDBRANCH 116 117
END_RES PHE A 126
BEGIN_RES TRP A 131
REMARK  2 active torsions:
REMARK  status: ('A' for Active; 'I' for Inactive)
REMARK   39  A    between atoms: CA   and  CB  
REMARK   40  A    between atoms: CB   and  CG  
ROOT
ATOM    124  CA  TRP A 131      -8.096  -3.335  26.542  1.00 14.52     0.181 C 
ENDROOT
BRANCH 124 125
ATOM    125  CB  TRP A 131      -7.651  -1.877  26.607  1.00 13.06     0.075 C 
BRANCH 125 126
ATOM    126  CG  TRP A 131      -8.053  -1.051  25.405  1.00 16.97    -0.028 A 
ATOM    127  CD2 TRP A 131      -9.136  -0.120  25.335  1.00 11.34    -0.002 A 
ATOM    128  CE2 TRP A 131      -9.142   0.425  24.037  1.00  5.87     0.042 A 
ATOM    129  CE3 TRP A 131     -10.105   0.305  26.251  1.00  3.80     0.014 A 
ATOM    130  CZ2 TRP A 131     -10.079   1.377  23.630  1.00  1.35     0.030 A 
ATOM    131  NE1 TRP A 131      -8.111  -0.148  23.345  1.00 13.90    -0.365 N 
ATOM    132  CH2 TRP A 131     -11.018   1.776  24.549  1.00  1.00     0.002 A 
ATOM    133  CZ3 TRP A 131     -11.037   1.246  25.853  1.00  1.00     0.001 A 
ATOM    134  CD1 TRP A 131      -7.460  -1.033  24.173  1.00 17.22     0.096 A 
ATOM    135  H07 TRP A 131      -7.867   0.046  22.385  1.00 13.90     0.165 HD
ENDBRANCH 125 126
ENDBRANCH 124 125
END_RES TRP A 131
BEGIN_RES LEU A 148
REMARK  2 active torsions:
REMARK  status: ('A' for Active; 'I' for Inactive)
REMARK   41  A    between atoms: CA   and  CB  
REMARK   42  A    between atoms: CB   and  CG  
ROOT
ATOM    136  CA  LEU A 148      -9.018   3.259  29.295  1.00 16.99     0.177 C 
ENDROOT
BRANCH 136 137
ATOM    137  CB  LEU A 148      -8.166   2.574  28.236  1.00  6.39     0.038 C 
BRANCH 137 138
ATOM    138  CG  LEU A 148      -7.986   3.185  26.861  1.00  1.00    -0.020 C 
ATOM    139  CD2 LEU A 148      -6.582   3.686  26.694  1.00  1.00     0.009 C 
ATOM    140  CD1 LEU A 148      -8.980   4.322  26.712  1.00  2.71     0.009 C 
ENDBRANCH 137 138
ENDBRANCH 136 137
END_RES LEU A 148
BEGIN_RES THR A 154
REMARK  2 active torsions:
REMARK  status: ('A' for Active; 'I' for Inactive)
REMARK   43  A    between atoms: CA   and  CB  
REMARK   44  A    between atoms: CB   and  OG1 
ROOT
ATOM    141  CA  THR A 154     -15.990   3.959  24.426  1.00 20.45     0.205 C 
ENDROOT
BRANCH 141 142
ATOM    142  CB  THR A 154     -14.777   4.829  24.694  1.00 16.79     0.146 C 
ATOM    143  CG2 THR A 154     -13.674   4.509  23.704  1.00 20.24     0.042 C 
BRANCH 142 144
ATOM    144  OG1 THR A 154     -15.150   6.205  24.543  1.00 18.84    -0.393 OA
ATOM    145  H06 THR A 154     -15.056   6.656  25.384  1.00 18.84     0.210 HD
ENDBRANCH 142 144
ENDBRANCH 141 142
END_RES THR A 154
BEGIN_RES VAL A 158
REMARK  1 active torsions:
REMARK  status: ('A' for Active; 'I' for Inactive)
REMARK   45  A    between atoms: CA   and  CB  
ROOT
ATOM    146  CA  VAL A 158     -15.487  -0.189  19.892  1.00 15.49     0.180 C 
ENDROOT
BRANCH 146 147
ATOM    147  CB  VAL A 158     -14.291  -0.273  20.822  1.00  6.52     0.009 C 
ATOM    148  CG1 VAL A 158     -13.242  -1.210  20.268  1.00  1.00     0.012 C 
ATOM    149  CG2 VAL A 158     -13.728   1.102  21.005  1.00  5.99     0.012 C 
ENDBRANCH 146 147
END_RES VAL A 158
BEGIN_RES LEU A 161
REMARK  2 active torsions:
REMARK  status: ('A' for Active; 'I' for Inactive)
REMARK   46  A    between atoms: CA   and  CB  
REMARK   47  A    between atoms: CB   and  CG  
ROOT
ATOM    150  CA  LEU A 161     -18.031  -1.858  15.935  1.00 13.31     0.177 C 
ENDROOT
BRANCH 150 151
ATOM    151  CB  LEU A 161     -17.046  -0.706  16.001  1.00 14.13     0.038 C 
BRANCH 151 152
ATOM    152  CG  LEU A 161     -17.483   0.594  15.339  1.00 19.39    -0.020 C 
ATOM    153  CD2 LEU A 161     -16.868   0.713  13.965  1.00 27.75     0.009 C 
ATOM    154  CD1 LEU A 161     -17.049   1.749  16.200  1.00 18.59     0.009 C 
ENDBRANCH 151 152
ENDBRANCH 150 151
END_RES LEU A 161
BEGIN_RES GLN A 168
REMARK  3 active torsions:
REMARK  status: ('A' for Active; 'I' for Inactive)
REMARK   48  A    between atoms: CA   and  CB  
REMARK   49  A    between atoms: CB   and  CG  
REMARK   50  A    between atoms: CG   and  CD  
REMARK       I    between atoms: CD   and  NE2 
ROOT
ATOM    155  CA  GLN A 168     -22.035  -6.020   8.155  1.00 30.94     0.177 C 
ENDROOT
BRANCH 155 156
ATOM    156  CB  GLN A 168     -23.054  -5.218   8.946  1.00 41.76     0.044 C 
BRANCH 156 157
ATOM    157  CG  GLN A 168     -24.481  -5.429   8.520  1.00 61.20     0.105 C 
BRANCH 157 158
ATOM    158  CD  GLN A 168     -24.979  -4.304   7.634  1.00 75.49     0.215 C 
ATOM    159  NE2 GLN A 168     -24.826  -4.476   6.319  1.00 85.00    -0.370 N 
ATOM    160  H06 GLN A 168     -25.136  -3.761   5.677  1.00 85.00     0.159 HD
ATOM    161  H07 GLN A 168     -24.400  -5.322   5.967  1.00 85.00     0.159 HD
ATOM    162  OE1 GLN A 168     -25.491  -3.286   8.120  1.00 73.64    -0.274 OA
ENDBRANCH 157 158
ENDBRANCH 156 157
ENDBRANCH 155 156
END_RES GLN A 168
ENDMDL
