REMARK  Name = human_CD1d_LDAO_pred.rank_0
REMARK  11 active torsions:
REMARK  status: ('A' for Active; 'I' for Inactive)
REMARK    1  A    between atoms: N_2  and  C_14
REMARK    2  A    between atoms: C_4  and  C_5
REMARK    3  A    between atoms: C_5  and  C_6
REMARK    4  A    between atoms: C_6  and  C_7
REMARK    5  A    between atoms: C_7  and  C_8
REMARK    6  A    between atoms: C_8  and  C_9
REMARK    7  A    between atoms: C_9  and  C_10
REMARK    8  A    between atoms: C_10  and  C_11
REMARK    9  A    between atoms: C_11  and  C_12
REMARK   10  A    between atoms: C_12  and  C_13
REMARK   11  A    between atoms: C_13  and  C_14
REMARK                            x       y       z     vdW  Elec       q    Type
REMARK                         _______ _______ _______ _____ _____    ______ ____
ROOT
ATOM      1  C   UNL     1       5.349 -22.107   7.607  0.00  0.00    +0.000 C 
ENDROOT
BRANCH   1   2
ATOM      2  C   UNL     1       4.968 -21.326   6.323  0.00  0.00    +0.000 C 
BRANCH   2   3
ATOM      3  C   UNL     1       5.711 -21.832   5.052  0.00  0.00    +0.000 C 
BRANCH   3   4
ATOM      4  C   UNL     1       7.134 -21.286   4.978  0.00  0.00    +0.000 C 
BRANCH   4   5
ATOM      5  C   UNL     1       7.835 -21.696   3.673  0.00  0.00    +0.000 C 
BRANCH   5   6
ATOM      6  C   UNL     1       9.268 -21.143   3.610  0.00  0.00    +0.000 C 
BRANCH   6   8
ATOM      7  C   UNL     1      11.435 -21.105   2.340  0.00  0.00    +0.000 C 
ATOM      8  C   UNL     1       9.991 -21.598   2.364  0.00  0.00    +0.000 C 
ENDBRANCH   6   8
ENDBRANCH   5   6
ENDBRANCH   4   5
ENDBRANCH   3   4
ENDBRANCH   2   3
ENDBRANCH   1   2
BRANCH   1   9
ATOM      9  C   UNL     1       4.658 -21.538   8.860  0.00  0.00    +0.000 C 
BRANCH   9  10
ATOM     10  C   UNL     1       5.099 -22.281  10.127  0.00  0.00    +0.000 C 
BRANCH  10  11
ATOM     11  C   UNL     1       4.839 -21.467  11.411  0.00  0.00    +0.000 C 
BRANCH  11  12
ATOM     12  C   UNL     1       3.392 -21.597  11.891  0.00  0.00    +0.000 C 
BRANCH  12  13
ATOM     13  N   UNL     1       3.325 -21.345  13.352  0.00  0.00    +0.000 N 
ATOM     14  O   UNL     1       3.931 -20.200  13.661  0.00  0.00    +0.000 OA
ATOM     15  C   UNL     1       1.902 -21.244  13.727  0.00  0.00    +0.000 C 
ATOM     16  C   UNL     1       3.937 -22.445  14.073  0.00  0.00    +0.000 C 
ENDBRANCH  12  13
ENDBRANCH  11  12
ENDBRANCH  10  11
ENDBRANCH   9  10
ENDBRANCH   1   9
TORSDOF 11
