MODEL 1
REMARK VINA RESULT:      -6.8      0.000      0.000
REMARK  Name = human_CD1d_brij35_pred.rank_0
REMARK  79 active torsions:
REMARK  status: ('A' for Active; 'I' for Inactive)
REMARK    1  A    between atoms: O_2  and  C_23
REMARK    2  A    between atoms: O_2  and  C_25
REMARK    3  A    between atoms: C_3  and  C_5
REMARK    4  A    between atoms: O_4  and  C_27
REMARK    5  A    between atoms: O_4  and  C_29
REMARK    6  A    between atoms: C_5  and  C_7
REMARK    7  A    between atoms: O_6  and  C_31
REMARK    8  A    between atoms: O_6  and  C_33
REMARK    9  A    between atoms: C_7  and  C_9
REMARK   10  A    between atoms: O_8  and  C_35
REMARK   11  A    between atoms: O_8  and  C_37
REMARK   12  A    between atoms: C_9  and  C_11
REMARK   13  A    between atoms: O_10  and  C_39
REMARK   14  A    between atoms: O_10  and  C_41
REMARK   15  A    between atoms: C_11  and  C_13
REMARK   16  A    between atoms: O_12  and  C_43
REMARK   17  A    between atoms: O_12  and  C_45
REMARK   18  A    between atoms: C_13  and  C_15
REMARK   19  A    between atoms: O_14  and  C_47
REMARK   20  A    between atoms: O_14  and  C_49
REMARK   21  A    between atoms: C_15  and  C_17
REMARK   22  A    between atoms: O_16  and  C_50
REMARK   23  A    between atoms: O_16  and  C_51
REMARK   24  A    between atoms: C_17  and  C_19
REMARK   25  A    between atoms: O_18  and  C_52
REMARK   26  A    between atoms: O_18  and  C_53
REMARK   27  A    between atoms: C_19  and  C_21
REMARK   28  A    between atoms: O_20  and  C_54
REMARK   29  A    between atoms: O_20  and  C_55
REMARK   30  A    between atoms: C_21  and  C_23
REMARK   31  A    between atoms: O_22  and  C_56
REMARK   32  A    between atoms: O_22  and  C_57
REMARK   33  A    between atoms: O_24  and  C_58
REMARK   34  A    between atoms: O_24  and  C_59
REMARK   35  A    between atoms: C_25  and  C_27
REMARK   36  A    between atoms: O_26  and  C_60
REMARK   37  A    between atoms: O_26  and  C_61
REMARK   38  A    between atoms: O_28  and  C_62
REMARK   39  A    between atoms: O_28  and  C_63
REMARK   40  A    between atoms: C_29  and  C_31
REMARK   41  A    between atoms: O_30  and  C_64
REMARK   42  A    between atoms: O_30  and  C_65
REMARK   43  A    between atoms: O_32  and  C_66
REMARK   44  A    between atoms: O_32  and  C_67
REMARK   45  A    between atoms: C_33  and  C_35
REMARK   46  A    between atoms: O_34  and  C_68
REMARK   47  A    between atoms: O_34  and  C_69
REMARK   48  A    between atoms: O_36  and  C_70
REMARK   49  A    between atoms: O_36  and  C_71
REMARK   50  A    between atoms: C_37  and  C_39
REMARK   51  A    between atoms: O_38  and  C_72
REMARK   52  A    between atoms: O_38  and  C_73
REMARK   53  A    between atoms: O_40  and  C_74
REMARK   54  A    between atoms: O_40  and  C_75
REMARK   55  A    between atoms: C_41  and  C_43
REMARK   56  A    between atoms: O_42  and  C_76
REMARK   57  A    between atoms: O_42  and  C_77
REMARK   58  A    between atoms: O_44  and  C_78
REMARK   59  A    between atoms: O_44  and  C_79
REMARK   60  A    between atoms: C_45  and  C_47
REMARK   61  A    between atoms: O_46  and  C_80
REMARK   62  A    between atoms: O_46  and  C_81
REMARK   63  A    between atoms: C_49  and  C_50
REMARK   64  A    between atoms: C_51  and  C_52
REMARK   65  A    between atoms: C_53  and  C_54
REMARK   66  A    between atoms: C_55  and  C_56
REMARK   67  A    between atoms: C_57  and  C_58
REMARK   68  A    between atoms: C_59  and  C_60
REMARK   69  A    between atoms: C_61  and  C_62
REMARK   70  A    between atoms: C_63  and  C_64
REMARK   71  A    between atoms: C_65  and  C_66
REMARK   72  A    between atoms: C_67  and  C_68
REMARK   73  A    between atoms: C_69  and  C_70
REMARK   74  A    between atoms: C_71  and  C_72
REMARK   75  A    between atoms: C_73  and  C_74
REMARK   76  A    between atoms: C_75  and  C_76
REMARK   77  A    between atoms: C_77  and  C_78
REMARK   78  A    between atoms: C_79  and  C_80
REMARK   79  A    between atoms: C_81  and  C_82
REMARK                            x       y       z     vdW  Elec       q    Type
REMARK                         _______ _______ _______ _____ _____    ______ ____
ROOT
ATOM      1  C   UNL     1      -9.142   5.940  17.546  0.00  0.00    +0.000 C 
ENDROOT
BRANCH   1   2
ATOM      2  C   UNL     1      -9.969   7.139  17.114  0.00  0.00    +0.000 C 
BRANCH   2   3
ATOM      3  O   UNL     1      -9.439   7.731  15.915  0.00  0.00    +0.000 OA
BRANCH   3   4
ATOM      4  C   UNL     1     -10.289   7.418  14.800  0.00  0.00    +0.000 C 
BRANCH   4   5
ATOM      5  C   UNL     1      -9.631   6.439  13.847  0.00  0.00    +0.000 C 
BRANCH   5   6
ATOM      6  O   UNL     1     -10.078   5.112  14.196  0.00  0.00    +0.000 OA
BRANCH   6   7
ATOM      7  C   UNL     1      -9.173   4.082  13.806  0.00  0.00    +0.000 C 
BRANCH   7   8
ATOM      8  C   UNL     1      -9.573   3.522  12.433  0.00  0.00    +0.000 C 
BRANCH   8   9
ATOM      9  O   UNL     1      -8.566   3.842  11.452  0.00  0.00    +0.000 OA
BRANCH   9  10
ATOM     10  C   UNL     1      -8.962   4.869  10.563  0.00  0.00    +0.000 C 
BRANCH  10  11
ATOM     11  C   UNL     1      -9.426   4.282   9.203  0.00  0.00    +0.000 C 
BRANCH  11  12
ATOM     12  O   UNL     1      -9.037   5.152   8.148  0.00  0.00    +0.000 OA
BRANCH  12  13
ATOM     13  C   UNL     1     -10.088   5.865   7.508  0.00  0.00    +0.000 C 
BRANCH  13  14
ATOM     14  C   UNL     1     -10.835   4.890   6.557  0.00  0.00    +0.000 C 
BRANCH  14  15
ATOM     15  O   UNL     1     -12.240   4.807   6.862  0.00  0.00    +0.000 OA
BRANCH  15  16
ATOM     16  C   UNL     1     -12.679   3.601   7.431  0.00  0.00    +0.000 C 
BRANCH  16  17
ATOM     17  C   UNL     1     -13.870   3.114   6.634  0.00  0.00    +0.000 C 
BRANCH  17  18
ATOM     18  O   UNL     1     -14.367   4.126   5.745  0.00  0.00    +0.000 OA
BRANCH  18  19
ATOM     19  C   UNL     1     -15.757   4.138   5.613  0.00  0.00    +0.000 C 
BRANCH  19  20
ATOM     20  C   UNL     1     -16.288   5.559   5.701  0.00  0.00    +0.000 C 
BRANCH  20  21
ATOM     21  O   UNL     1     -17.552   5.542   6.347  0.00  0.00    +0.000 OA
BRANCH  21  22
ATOM     22  C   UNL     1     -17.655   6.587   7.267  0.00  0.00    +0.000 C 
BRANCH  22  23
ATOM     23  C   UNL     1     -16.352   6.662   8.074  0.00  0.00    +0.000 C 
BRANCH  23  24
ATOM     24  O   UNL     1     -16.511   5.985   9.310  0.00  0.00    +0.000 OA
BRANCH  24  25
ATOM     25  C   UNL     1     -16.013   4.650   9.263  0.00  0.00    +0.000 C 
BRANCH  25  26
ATOM     26  C   UNL     1     -15.838   4.161  10.720  0.00  0.00    +0.000 C 
BRANCH  26  27
ATOM     27  O   UNL     1     -16.354   5.157  11.604  0.00  0.00    +0.000 OA
BRANCH  27  28
ATOM     28  C   UNL     1     -16.421   4.738  12.945  0.00  0.00    +0.000 C 
BRANCH  28  29
ATOM     29  C   UNL     1     -15.513   3.573  13.233  0.00  0.00    +0.000 C 
BRANCH  29  30
ATOM     30  O   UNL     1     -15.049   3.647  14.548  0.00  0.00    +0.000 OA
BRANCH  30  31
ATOM     31  C   UNL     1     -14.173   2.590  14.892  0.00  0.00    +0.000 C 
BRANCH  31  32
ATOM     32  C   UNL     1     -12.983   2.617  13.958  0.00  0.00    +0.000 C 
BRANCH  32  33
ATOM     33  O   UNL     1     -12.207   1.470  14.193  0.00  0.00    +0.000 OA
BRANCH  33  34
ATOM     34  C   UNL     1     -12.838   0.295  13.807  0.00  0.00    +0.000 C 
BRANCH  34  35
ATOM     35  C   UNL     1     -12.510   0.009  12.355  0.00  0.00    +0.000 C 
BRANCH  35  36
ATOM     36  O   UNL     1     -12.980  -1.289  12.018  0.00  0.00    +0.000 OA
BRANCH  36  37
ATOM     37  C   UNL     1     -14.360  -1.283  11.733  0.00  0.00    +0.000 C 
BRANCH  37  38
ATOM     38  C   UNL     1     -14.581  -0.622  10.361  0.00  0.00    +0.000 C 
BRANCH  38  39
ATOM     39  O   UNL     1     -15.770  -1.162   9.844  0.00  0.00    +0.000 OA
BRANCH  39  40
ATOM     40  C   UNL     1     -16.899  -0.276  10.087  0.00  0.00    +0.000 C 
BRANCH  40  42
ATOM     41  O   UNL     1     -18.027   1.278   8.639  0.00  0.00    +0.000 OA
ATOM     42  C   UNL     1     -16.759   0.936   9.184  0.00  0.00    +0.000 C 
ENDBRANCH  40  42
ENDBRANCH  39  40
ENDBRANCH  38  39
ENDBRANCH  37  38
ENDBRANCH  36  37
ENDBRANCH  35  36
ENDBRANCH  34  35
ENDBRANCH  33  34
ENDBRANCH  32  33
ENDBRANCH  31  32
ENDBRANCH  30  31
ENDBRANCH  29  30
ENDBRANCH  28  29
ENDBRANCH  27  28
ENDBRANCH  26  27
ENDBRANCH  25  26
ENDBRANCH  24  25
ENDBRANCH  23  24
ENDBRANCH  22  23
ENDBRANCH  21  22
ENDBRANCH  20  21
ENDBRANCH  19  20
ENDBRANCH  18  19
ENDBRANCH  17  18
ENDBRANCH  16  17
ENDBRANCH  15  16
ENDBRANCH  14  15
ENDBRANCH  13  14
ENDBRANCH  12  13
ENDBRANCH  11  12
ENDBRANCH  10  11
ENDBRANCH   9  10
ENDBRANCH   8   9
ENDBRANCH   7   8
ENDBRANCH   6   7
ENDBRANCH   5   6
ENDBRANCH   4   5
ENDBRANCH   3   4
ENDBRANCH   2   3
ENDBRANCH   1   2
BRANCH   1  43
ATOM     43  O   UNL     1      -9.499   5.526  18.857  0.00  0.00    +0.000 OA
BRANCH  43  44
ATOM     44  C   UNL     1     -10.751   5.980  19.242  0.00  0.00    +0.000 C 
BRANCH  44  45
ATOM     45  C   UNL     1     -10.715   6.382  20.720  0.00  0.00    +0.000 C 
BRANCH  45  46
ATOM     46  O   UNL     1     -10.537   7.793  20.798  0.00  0.00    +0.000 OA
BRANCH  46  47
ATOM     47  C   UNL     1     -11.290   8.443  21.775  0.00  0.00    +0.000 C 
BRANCH  47  48
ATOM     48  C   UNL     1     -12.319   7.468  22.371  0.00  0.00    +0.000 C 
BRANCH  48  49
ATOM     49  O   UNL     1     -13.000   8.107  23.392  0.00  0.00    +0.000 OA
BRANCH  49  50
ATOM     50  C   UNL     1     -13.875   9.112  22.897  0.00  0.00    +0.000 C 
BRANCH  50  51
ATOM     51  C   UNL     1     -14.544   9.810  24.076  0.00  0.00    +0.000 C 
BRANCH  51  52
ATOM     52  O   UNL     1     -14.049  11.160  24.166  0.00  0.00    +0.000 OA
BRANCH  52  53
ATOM     53  C   UNL     1     -13.004  11.250  25.139  0.00  0.00    +0.000 C 
BRANCH  53  54
ATOM     54  C   UNL     1     -13.343  10.360  26.345  0.00  0.00    +0.000 C 
BRANCH  54  55
ATOM     55  O   UNL     1     -12.128  10.028  27.029  0.00  0.00    +0.000 OA
BRANCH  55  56
ATOM     56  C   UNL     1     -11.733  11.072  27.907  0.00  0.00    +0.000 C 
BRANCH  56  57
ATOM     57  C   UNL     1     -10.842  10.456  28.948  0.00  0.00    +0.000 C 
BRANCH  57  58
ATOM     58  O   UNL     1      -9.482  10.668  28.604  0.00  0.00    +0.000 OA
BRANCH  58  59
ATOM     59  C   UNL     1      -8.628   9.774  29.239  0.00  0.00    +0.000 C 
BRANCH  59  60
ATOM     60  C   UNL     1      -7.653   9.218  28.214  0.00  0.00    +0.000 C 
BRANCH  60  61
ATOM     61  O   UNL     1      -8.326   8.257  27.415  0.00  0.00    +0.000 OA
BRANCH  61  62
ATOM     62  C   UNL     1      -8.970   7.261  28.176  0.00  0.00    +0.000 C 
BRANCH  62  63
ATOM     63  C   UNL     1     -10.349   6.986  27.561  0.00  0.00    +0.000 C 
BRANCH  63  64
ATOM     64  O   UNL     1     -10.548   5.578  27.619  0.00  0.00    +0.000 OA
BRANCH  64  65
ATOM     65  C   UNL     1     -10.930   5.059  26.419  0.00  0.00    +0.000 C 
BRANCH  65  66
ATOM     66  C   UNL     1     -10.826   6.113  25.292  0.00  0.00    +0.000 C 
BRANCH  66  67
ATOM     67  O   UNL     1      -9.849   5.662  24.353  0.00  0.00    +0.000 OA
BRANCH  67  68
ATOM     68  C   UNL     1      -8.812   6.625  24.167  0.00  0.00    +0.000 C 
BRANCH  68  69
ATOM     69  C   UNL     1      -7.887   6.043  23.077  0.00  0.00    +0.000 C 
BRANCH  69  70
ATOM     70  O   UNL     1      -8.074   4.610  23.145  0.00  0.00    +0.000 OA
BRANCH  70  71
ATOM     71  C   UNL     1      -7.114   3.977  22.314  0.00  0.00    +0.000 C 
BRANCH  71  72
ATOM     72  C   UNL     1      -6.399   2.924  23.218  0.00  0.00    +0.000 C 
BRANCH  72  73
ATOM     73  C   UNL     1      -5.133   3.600  23.739  0.00  0.00    +0.000 C 
BRANCH  73  74
ATOM     74  C   UNL     1      -4.383   4.205  22.550  0.00  0.00    +0.000 C 
BRANCH  74  75
ATOM     75  C   UNL     1      -3.480   5.309  23.027  0.00  0.00    +0.000 C 
BRANCH  75  76
ATOM     76  C   UNL     1      -2.917   4.936  24.366  0.00  0.00    +0.000 C 
BRANCH  76  77
ATOM     77  C   UNL     1      -1.513   4.398  24.165  0.00  0.00    +0.000 C 
BRANCH  77  78
ATOM     78  C   UNL     1      -0.627   5.522  23.625  0.00  0.00    +0.000 C 
BRANCH  78  79
ATOM     79  C   UNL     1       0.752   5.435  24.258  0.00  0.00    +0.000 C 
BRANCH  79  80
ATOM     80  C   UNL     1       1.157   6.744  24.877  0.00  0.00    +0.000 C 
BRANCH  80  82
ATOM     81  C   UNL     1       1.416   9.145  24.318  0.00  0.00    +0.000 C 
ATOM     82  C   UNL     1       0.608   7.889  24.067  0.00  0.00    +0.000 C 
ENDBRANCH  80  82
ENDBRANCH  79  80
ENDBRANCH  78  79
ENDBRANCH  77  78
ENDBRANCH  76  77
ENDBRANCH  75  76
ENDBRANCH  74  75
ENDBRANCH  73  74
ENDBRANCH  72  73
ENDBRANCH  71  72
ENDBRANCH  70  71
ENDBRANCH  69  70
ENDBRANCH  68  69
ENDBRANCH  67  68
ENDBRANCH  66  67
ENDBRANCH  65  66
ENDBRANCH  64  65
ENDBRANCH  63  64
ENDBRANCH  62  63
ENDBRANCH  61  62
ENDBRANCH  60  61
ENDBRANCH  59  60
ENDBRANCH  58  59
ENDBRANCH  57  58
ENDBRANCH  56  57
ENDBRANCH  55  56
ENDBRANCH  54  55
ENDBRANCH  53  54
ENDBRANCH  52  53
ENDBRANCH  51  52
ENDBRANCH  50  51
ENDBRANCH  49  50
ENDBRANCH  48  49
ENDBRANCH  47  48
ENDBRANCH  46  47
ENDBRANCH  45  46
ENDBRANCH  44  45
ENDBRANCH  43  44
ENDBRANCH   1  43
TORSDOF 79
BEGIN_RES LEU A  10
REMARK  2 active torsions:
REMARK  status: ('A' for Active; 'I' for Inactive)
REMARK    1  A    between atoms: CA   and  CB  
REMARK    2  A    between atoms: CB   and  CG  
ROOT
ATOM      1  CA  LEU A  10     -10.775  -4.871   5.898  1.00 25.14     0.177 C 
ENDROOT
BRANCH   1   2
ATOM      2  CB  LEU A  10     -12.191  -4.387   6.226  1.00 17.87     0.038 C 
BRANCH   2   3
ATOM      3  CG  LEU A  10     -12.721  -3.299   5.290  1.00 24.95    -0.020 C 
ATOM      4  CD2 LEU A  10     -13.550  -2.341   6.077  1.00 26.38     0.009 C 
ATOM      5  CD1 LEU A  10     -13.532  -3.904   4.157  1.00 28.12     0.009 C 
ENDBRANCH   2   3
ENDBRANCH   1   2
END_RES LEU A  10
BEGIN_RES CYS A  12
REMARK  2 active torsions:
REMARK  status: ('A' for Active; 'I' for Inactive)
REMARK    3  A    between atoms: CA   and  CB  
REMARK    4  A    between atoms: CB   and  SG  
ROOT
ATOM      6  CA  CYS A  12      -8.555   0.470   8.750  1.00 23.16     0.185 C 
ENDROOT
BRANCH   6   7
ATOM      7  CB  CYS A  12      -9.828   0.763   9.555  1.00 20.43     0.105 C 
BRANCH   7   8
ATOM      8  SG  CYS A  12     -11.404   0.415   8.715  1.00 24.64    -0.180 SA
ATOM      9  H04 CYS A  12     -11.761  -0.856   8.943  1.00 24.64     0.101 HD
ENDBRANCH   7   8
ENDBRANCH   6   7
END_RES CYS A  12
BEGIN_RES GLN A  14
REMARK  3 active torsions:
REMARK  status: ('A' for Active; 'I' for Inactive)
REMARK    5  A    between atoms: CA   and  CB  
REMARK    6  A    between atoms: CB   and  CG  
REMARK    7  A    between atoms: CG   and  CD  
REMARK       I    between atoms: CD   and  NE2 
ROOT
ATOM     10  CA  GLN A  14      -4.645   5.402  11.377  1.00 10.43     0.177 C 
ENDROOT
BRANCH  10  11
ATOM     11  CB  GLN A  14      -5.541   5.549  12.608  1.00 14.45     0.044 C 
BRANCH  11  12
ATOM     12  CG  GLN A  14      -6.492   6.722  12.542  1.00 13.74     0.105 C 
BRANCH  12  13
ATOM     13  CD  GLN A  14      -5.932   7.957  13.207  1.00 16.29     0.215 C 
ATOM     14  NE2 GLN A  14      -6.466   8.295  14.360  1.00  8.57    -0.370 N 
ATOM     15  H06 GLN A  14      -6.131   9.112  14.851  1.00  8.57     0.159 HD
ATOM     16  H07 GLN A  14      -7.211   7.739  14.754  1.00  8.57     0.159 HD
ATOM     17  OE1 GLN A  14      -5.029   8.595  12.690  1.00 23.55    -0.274 OA
ENDBRANCH  12  13
ENDBRANCH  11  12
ENDBRANCH  10  11
END_RES GLN A  14
BEGIN_RES SER A  16
REMARK  2 active torsions:
REMARK  status: ('A' for Active; 'I' for Inactive)
REMARK    8  A    between atoms: CA   and  CB  
REMARK    9  A    between atoms: CB   and  OG  
ROOT
ATOM     18  CA  SER A  16      -1.305  10.019  14.282  1.00  2.34     0.200 C 
ENDROOT
BRANCH  18  19
ATOM     19  CB  SER A  16      -2.242   9.935  15.479  1.00  3.12     0.199 C 
BRANCH  19  20
ATOM     20  OG  SER A  16      -3.457   9.306  15.110  1.00  1.00    -0.398 OA
ATOM     21  H04 SER A  16      -3.641   9.483  14.185  1.00  1.00     0.209 HD
ENDBRANCH  19  20
ENDBRANCH  18  19
END_RES SER A  16
BEGIN_RES LEU A  32
REMARK  2 active torsions:
REMARK  status: ('A' for Active; 'I' for Inactive)
REMARK   10  A    between atoms: CA   and  CB  
REMARK   11  A    between atoms: CB   and  CG  
ROOT
ATOM     22  CA  LEU A  32     -10.272  -4.106   1.587  1.00 16.16     0.177 C 
ENDROOT
BRANCH  22  23
ATOM     23  CB  LEU A  32     -11.613  -3.858   0.880  1.00 12.35     0.038 C 
BRANCH  23  24
ATOM     24  CG  LEU A  32     -12.611  -5.008   1.123  1.00  9.77    -0.020 C 
ATOM     25  CD1 LEU A  32     -13.997  -4.602   0.681  1.00  4.35     0.009 C 
ATOM     26  CD2 LEU A  32     -12.187  -6.252   0.386  1.00 10.60     0.009 C 
ENDBRANCH  23  24
ENDBRANCH  22  23
END_RES LEU A  32
BEGIN_RES HIS A  38
REMARK  2 active torsions:
REMARK  status: ('A' for Active; 'I' for Inactive)
REMARK   12  A    between atoms: CA   and  CB  
REMARK   13  A    between atoms: CB   and  CG  
ROOT
ATOM     27  CA  HIS A  38     -10.959   4.941   1.621  1.00 16.94     0.182 C 
ENDROOT
BRANCH  27  28
ATOM     28  CB  HIS A  38     -11.810   4.840   2.881  1.00 15.47     0.095 C 
BRANCH  28  29
ATOM     29  CG  HIS A  38     -13.003   3.952   2.734  1.00 18.62     0.053 A 
ATOM     30  CD2 HIS A  38     -14.210   4.173   2.160  1.00 15.06     0.116 A 
ATOM     31  NE2 HIS A  38     -14.928   3.011   2.274  1.00 18.12    -0.359 N 
ATOM     32  CE1 HIS A  38     -14.193   2.109   2.896  1.00 14.78     0.207 A 
ATOM     33  H06 HIS A  38     -15.870   2.868   1.937  1.00 18.12     0.166 HD
ATOM     34  ND1 HIS A  38     -13.027   2.651   3.185  1.00 16.58    -0.247 NA
ENDBRANCH  28  29
ENDBRANCH  27  28
END_RES HIS A  38
BEGIN_RES TRP A  63
REMARK  2 active torsions:
REMARK  status: ('A' for Active; 'I' for Inactive)
REMARK   14  A    between atoms: CA   and  CB  
REMARK   15  A    between atoms: CB   and  CG  
ROOT
ATOM     35  CA  TRP A  63     -22.437   6.257   6.543  1.00 27.04     0.181 C 
ENDROOT
BRANCH  35  36
ATOM     36  CB  TRP A  63     -22.360   6.642   5.068  1.00 31.37     0.075 C 
BRANCH  36  37
ATOM     37  CG  TRP A  63     -20.993   6.465   4.442  1.00 34.37    -0.028 A 
ATOM     38  CD2 TRP A  63     -20.200   7.467   3.790  1.00 33.79    -0.002 A 
ATOM     39  CE3 TRP A  63     -20.401   8.813   3.477  1.00 32.99     0.014 A 
ATOM     40  CE2 TRP A  63     -18.976   6.862   3.430  1.00 35.84     0.042 A 
ATOM     41  CZ3 TRP A  63     -19.391   9.504   2.823  1.00 32.93     0.001 A 
ATOM     42  CH2 TRP A  63     -18.184   8.873   2.477  1.00 39.24     0.002 A 
ATOM     43  CZ2 TRP A  63     -17.959   7.556   2.773  1.00 37.99     0.030 A 
ATOM     44  NE1 TRP A  63     -19.029   5.559   3.843  1.00 37.98    -0.365 N 
ATOM     45  H06 TRP A  63     -18.295   4.875   3.724  1.00 37.98     0.165 HD
ATOM     46  CD1 TRP A  63     -20.242   5.331   4.446  1.00 38.16     0.096 A 
ENDBRANCH  36  37
ENDBRANCH  35  36
END_RES TRP A  63
BEGIN_RES LEU A  66
REMARK  2 active torsions:
REMARK  status: ('A' for Active; 'I' for Inactive)
REMARK   16  A    between atoms: CA   and  CB  
REMARK   17  A    between atoms: CB   and  CG  
ROOT
ATOM     47  CA  LEU A  66     -20.004   6.489  11.120  1.00 10.90     0.177 C 
ENDROOT
BRANCH  47  48
ATOM     48  CB  LEU A  66     -19.626   5.453  10.069  1.00 13.57     0.038 C 
BRANCH  48  49
ATOM     49  CG  LEU A  66     -19.601   3.989  10.507  1.00  8.73    -0.020 C 
ATOM     50  CD1 LEU A  66     -19.790   3.878  11.997  1.00 14.23     0.009 C 
ATOM     51  CD2 LEU A  66     -20.706   3.257   9.789  1.00  1.92     0.009 C 
ENDBRANCH  48  49
ENDBRANCH  47  48
END_RES LEU A  66
BEGIN_RES PHE A  70
REMARK  2 active torsions:
REMARK  status: ('A' for Active; 'I' for Inactive)
REMARK   18  A    between atoms: CA   and  CB  
REMARK   19  A    between atoms: CB   and  CG  
ROOT
ATOM     52  CA  PHE A  70     -14.974   9.434  13.165  1.00  8.78     0.180 C 
ENDROOT
BRANCH  52  53
ATOM     53  CB  PHE A  70     -14.707   9.132  11.681  1.00  6.33     0.073 C 
BRANCH  53  54
ATOM     54  CG  PHE A  70     -13.950   7.851  11.458  1.00  3.42    -0.056 A 
ATOM     55  CD1 PHE A  70     -13.544   7.064  12.525  1.00 13.88     0.007 A 
ATOM     56  CE1 PHE A  70     -12.797   5.893  12.312  1.00 12.71     0.001 A 
ATOM     57  CZ  PHE A  70     -12.454   5.505  11.016  1.00  4.21     0.000 A 
ATOM     58  CE2 PHE A  70     -12.855   6.280   9.944  1.00  2.83     0.001 A 
ATOM     59  CD2 PHE A  70     -13.602   7.449  10.168  1.00  1.00     0.007 A 
ENDBRANCH  53  54
ENDBRANCH  52  53
END_RES PHE A  70
BEGIN_RES TYR A  73
REMARK  3 active torsions:
REMARK  status: ('A' for Active; 'I' for Inactive)
REMARK   20  A    between atoms: CA   and  CB  
REMARK   21  A    between atoms: CB   and  CG  
REMARK   22  A    between atoms: CZ   and  OH  
ROOT
ATOM     60  CA  TYR A  73     -13.212  10.166  17.260  1.00 12.17     0.180 C 
ENDROOT
BRANCH  60  61
ATOM     61  CB  TYR A  73     -13.301   8.846  16.517  1.00 12.84     0.073 C 
BRANCH  61  62
ATOM     62  CG  TYR A  73     -13.740   7.717  17.383  1.00 15.89    -0.056 A 
ATOM     63  CD1 TYR A  73     -14.002   7.909  18.722  1.00 16.00     0.010 A 
ATOM     64  CE1 TYR A  73     -14.384   6.847  19.541  1.00 13.55     0.037 A 
ATOM     65  CZ  TYR A  73     -14.499   5.582  19.000  1.00 18.13     0.065 A 
ATOM     66  CE2 TYR A  73     -14.244   5.364  17.667  1.00 15.89     0.037 A 
ATOM     67  CD2 TYR A  73     -13.866   6.434  16.864  1.00 21.86     0.010 A 
BRANCH  65  68
ATOM     68  OH  TYR A  73     -14.879   4.523  19.788  1.00 12.12    -0.361 OA
ATOM     69  H08 TYR A  73     -15.824   4.570  19.954  1.00 12.12     0.217 HD
ENDBRANCH  65  68
ENDBRANCH  61  62
ENDBRANCH  60  61
END_RES TYR A  73
BEGIN_RES PHE A  77
REMARK  2 active torsions:
REMARK  status: ('A' for Active; 'I' for Inactive)
REMARK   23  A    between atoms: CA   and  CB  
REMARK   24  A    between atoms: CB   and  CG  
ROOT
ATOM     70  CA  PHE A  77      -8.400  10.581  20.110  1.00 17.17     0.180 C 
ENDROOT
BRANCH  70  71
ATOM     71  CB  PHE A  77      -8.228   9.750  18.851  1.00 10.44     0.073 C 
BRANCH  71  72
ATOM     72  CG  PHE A  77      -7.134   8.733  18.945  1.00  6.07    -0.056 A 
ATOM     73  CD2 PHE A  77      -6.135   8.691  17.998  1.00  9.61     0.007 A 
ATOM     74  CE2 PHE A  77      -5.114   7.751  18.078  1.00  1.00     0.001 A 
ATOM     75  CZ  PHE A  77      -5.092   6.842  19.123  1.00  1.92     0.000 A 
ATOM     76  CE1 PHE A  77      -6.082   6.872  20.078  1.00  9.25     0.001 A 
ATOM     77  CD1 PHE A  77      -7.102   7.819  19.985  1.00  9.63     0.007 A 
ENDBRANCH  71  72
ENDBRANCH  70  71
END_RES PHE A  77
BEGIN_RES LEU A  96
REMARK  2 active torsions:
REMARK  status: ('A' for Active; 'I' for Inactive)
REMARK   25  A    between atoms: CA   and  CB  
REMARK   26  A    between atoms: CB   and  CG  
ROOT
ATOM     78  CA  LEU A  96       0.717   6.481  17.359  1.00 16.08     0.177 C 
ENDROOT
BRANCH  78  79
ATOM     79  CB  LEU A  96      -0.370   7.101  18.230  1.00 18.83     0.038 C 
BRANCH  79  80
ATOM     80  CG  LEU A  96      -0.851   6.210  19.375  1.00 19.03    -0.020 C 
ATOM     81  CD1 LEU A  96       0.353   5.669  20.111  1.00 28.17     0.009 C 
ATOM     82  CD2 LEU A  96      -1.688   7.008  20.348  1.00 22.01     0.009 C 
ENDBRANCH  79  80
ENDBRANCH  78  79
END_RES LEU A  96
BEGIN_RES VAL A  98
REMARK  1 active torsions:
REMARK  status: ('A' for Active; 'I' for Inactive)
REMARK   27  A    between atoms: CA   and  CB  
ROOT
ATOM     83  CA  VAL A  98      -3.928   2.082  14.897  1.00 19.83     0.180 C 
ENDROOT
BRANCH  83  84
ATOM     84  CB  VAL A  98      -5.203   2.807  15.281  1.00 17.87     0.009 C 
ATOM     85  CG2 VAL A  98      -5.148   3.218  16.730  1.00 29.90     0.012 C 
ATOM     86  CG1 VAL A  98      -6.394   1.909  15.022  1.00 14.79     0.012 C 
ENDBRANCH  83  84
END_RES VAL A  98
BEGIN_RES ASN A 112
REMARK  2 active torsions:
REMARK  status: ('A' for Active; 'I' for Inactive)
REMARK   28  A    between atoms: CA   and  CB  
REMARK   29  A    between atoms: CB   and  CG  
REMARK       I    between atoms: CG   and  ND2 
ROOT
ATOM     87  CA  ASN A 112     -11.790  -8.793  14.069  1.00 37.70     0.185 C 
ENDROOT
BRANCH  87  88
ATOM     88  CB  ASN A 112     -12.992  -7.945  14.465  1.00 26.24     0.137 C 
BRANCH  88  89
ATOM     89  CG  ASN A 112     -13.814  -8.563  15.574  1.00 21.77     0.217 C 
ATOM     90  ND2 ASN A 112     -14.964  -9.129  15.208  1.00  9.31    -0.370 N 
ATOM     91  H04 ASN A 112     -15.559  -9.558  15.902  1.00  9.31     0.159 HD
ATOM     92  H05 ASN A 112     -15.240  -9.130  14.236  1.00  9.31     0.159 HD
ATOM     93  OD1 ASN A 112     -13.426  -8.530  16.747  1.00 21.61    -0.274 OA
ENDBRANCH  88  89
ENDBRANCH  87  88
END_RES ASN A 112
BEGIN_RES PHE A 114
REMARK  2 active torsions:
REMARK  status: ('A' for Active; 'I' for Inactive)
REMARK   30  A    between atoms: CA   and  CB  
REMARK   31  A    between atoms: CB   and  CG  
ROOT
ATOM     94  CA  PHE A 114      -7.754  -3.619  17.012  1.00 26.06     0.180 C 
ENDROOT
BRANCH  94  95
ATOM     95  CB  PHE A 114      -8.890  -3.080  17.867  1.00 19.95     0.073 C 
BRANCH  95  96
ATOM     96  CG  PHE A 114      -9.180  -1.634  17.623  1.00 17.65    -0.056 A 
ATOM     97  CD1 PHE A 114      -8.152  -0.696  17.597  1.00 13.01     0.007 A 
ATOM     98  CE1 PHE A 114      -8.424   0.652  17.400  1.00  6.74     0.001 A 
ATOM     99  CZ  PHE A 114      -9.736   1.080  17.222  1.00  6.27     0.000 A 
ATOM    100  CE2 PHE A 114     -10.767   0.154  17.245  1.00 17.36     0.001 A 
ATOM    101  CD2 PHE A 114     -10.487  -1.201  17.446  1.00 18.39     0.007 A 
ENDBRANCH  95  96
ENDBRANCH  94  95
END_RES PHE A 114
BEGIN_RES VAL A 116
REMARK  1 active torsions:
REMARK  status: ('A' for Active; 'I' for Inactive)
REMARK   32  A    between atoms: CA   and  CB  
ROOT
ATOM    102  CA  VAL A 116      -2.467   0.283  18.565  1.00 13.48     0.180 C 
ENDROOT
BRANCH 102 103
ATOM    103  CB  VAL A 116      -3.101   1.238  19.599  1.00 20.86     0.009 C 
ATOM    104  CG1 VAL A 116      -2.675   2.677  19.296  1.00 25.01     0.012 C 
ATOM    105  CG2 VAL A 116      -4.605   1.095  19.613  1.00 25.34     0.012 C 
ENDBRANCH 102 103
END_RES VAL A 116
BEGIN_RES ILE A 123
REMARK  2 active torsions:
REMARK  status: ('A' for Active; 'I' for Inactive)
REMARK   33  A    between atoms: CA   and  CB  
REMARK   34  A    between atoms: CB   and  CG1 
ROOT
ATOM    106  CA  ILE A 123       1.557  -1.626  23.222  1.00 15.07     0.180 C 
ENDROOT
BRANCH 106 107
ATOM    107  CB  ILE A 123       1.697  -0.112  23.461  1.00 14.41     0.013 C 
ATOM    108  CG2 ILE A 123       3.119   0.216  23.882  1.00 18.35     0.012 C 
BRANCH 107 109
ATOM    109  CG1 ILE A 123       1.329   0.661  22.197  1.00 15.23     0.002 C 
ATOM    110  CD1 ILE A 123       0.212   1.655  22.398  1.00 14.67     0.005 C 
ENDBRANCH 107 109
ENDBRANCH 106 107
END_RES ILE A 123
BEGIN_RES LEU A 124
REMARK  2 active torsions:
REMARK  status: ('A' for Active; 'I' for Inactive)
REMARK   35  A    between atoms: CA   and  CB  
REMARK   36  A    between atoms: CB   and  CG  
ROOT
ATOM    111  CA  LEU A 124      -2.057  -2.686  23.524  1.00 11.86     0.177 C 
ENDROOT
BRANCH 111 112
ATOM    112  CB  LEU A 124      -2.698  -1.652  24.429  1.00 14.60     0.038 C 
BRANCH 112 113
ATOM    113  CG  LEU A 124      -2.621  -0.251  23.841  1.00 16.19    -0.020 C 
ATOM    114  CD1 LEU A 124      -3.989   0.114  23.234  1.00 22.07     0.009 C 
ATOM    115  CD2 LEU A 124      -2.204   0.722  24.914  1.00  9.12     0.009 C 
ENDBRANCH 112 113
ENDBRANCH 111 112
END_RES LEU A 124
BEGIN_RES PHE A 126
REMARK  2 active torsions:
REMARK  status: ('A' for Active; 'I' for Inactive)
REMARK   37  A    between atoms: CA   and  CB  
REMARK   38  A    between atoms: CB   and  CG  
ROOT
ATOM    116  CA  PHE A 126      -8.784  -4.792  22.233  1.00 23.15     0.180 C 
ENDROOT
BRANCH 116 117
ATOM    117  CB  PHE A 126      -9.823  -4.011  21.461  1.00 20.65     0.073 C 
BRANCH 117 118
ATOM    118  CG  PHE A 126     -10.930  -3.509  22.304  1.00 23.65    -0.056 A 
ATOM    119  CD2 PHE A 126     -10.708  -2.514  23.240  1.00 36.63     0.007 A 
ATOM    120  CE2 PHE A 126     -11.759  -2.038  24.037  1.00 36.27     0.001 A 
ATOM    121  CZ  PHE A 126     -13.032  -2.567  23.891  1.00 18.06     0.000 A 
ATOM    122  CE1 PHE A 126     -13.257  -3.559  22.957  1.00  5.50     0.001 A 
ATOM    123  CD1 PHE A 126     -12.207  -4.024  22.165  1.00 15.29     0.007 A 
ENDBRANCH 117 118
ENDBRANCH 116 117
END_RES PHE A 126
BEGIN_RES TRP A 131
REMARK  2 active torsions:
REMARK  status: ('A' for Active; 'I' for Inactive)
REMARK   39  A    between atoms: CA   and  CB  
REMARK   40  A    between atoms: CB   and  CG  
ROOT
ATOM    124  CA  TRP A 131      -8.096  -3.335  26.542  1.00 14.52     0.181 C 
ENDROOT
BRANCH 124 125
ATOM    125  CB  TRP A 131      -7.651  -1.877  26.607  1.00 13.06     0.075 C 
BRANCH 125 126
ATOM    126  CG  TRP A 131      -7.979  -1.072  25.369  1.00 16.97    -0.028 A 
ATOM    127  CD2 TRP A 131      -8.999  -0.077  25.245  1.00 11.34    -0.002 A 
ATOM    128  CE2 TRP A 131      -8.948   0.419  23.928  1.00  5.87     0.042 A 
ATOM    129  CE3 TRP A 131      -9.954   0.442  26.126  1.00  3.80     0.014 A 
ATOM    130  CZ2 TRP A 131      -9.814   1.413  23.470  1.00  1.35     0.030 A 
ATOM    131  NE1 TRP A 131      -7.944  -0.244  23.277  1.00 13.90    -0.365 N 
ATOM    132  CH2 TRP A 131     -10.741   1.905  24.356  1.00  1.00     0.002 A 
ATOM    133  CZ3 TRP A 131     -10.817   1.425  25.677  1.00  1.00     0.001 A 
ATOM    134  CD1 TRP A 131      -7.365  -1.138  24.148  1.00 17.22     0.096 A 
ATOM    135  H07 TRP A 131      -7.671  -0.101  22.315  1.00 13.90     0.165 HD
ENDBRANCH 125 126
ENDBRANCH 124 125
END_RES TRP A 131
BEGIN_RES LEU A 148
REMARK  2 active torsions:
REMARK  status: ('A' for Active; 'I' for Inactive)
REMARK   41  A    between atoms: CA   and  CB  
REMARK   42  A    between atoms: CB   and  CG  
ROOT
ATOM    136  CA  LEU A 148      -9.018   3.259  29.295  1.00 16.99     0.177 C 
ENDROOT
BRANCH 136 137
ATOM    137  CB  LEU A 148      -8.166   2.574  28.236  1.00  6.39     0.038 C 
BRANCH 137 138
ATOM    138  CG  LEU A 148      -6.962   3.268  27.632  1.00  1.00    -0.020 C 
ATOM    139  CD2 LEU A 148      -7.398   4.240  26.575  1.00  1.00     0.009 C 
ATOM    140  CD1 LEU A 148      -6.051   2.208  27.039  1.00  2.71     0.009 C 
ENDBRANCH 137 138
ENDBRANCH 136 137
END_RES LEU A 148
BEGIN_RES THR A 154
REMARK  2 active torsions:
REMARK  status: ('A' for Active; 'I' for Inactive)
REMARK   43  A    between atoms: CA   and  CB  
REMARK   44  A    between atoms: CB   and  OG1 
ROOT
ATOM    141  CA  THR A 154     -15.990   3.959  24.426  1.00 20.45     0.205 C 
ENDROOT
BRANCH 141 142
ATOM    142  CB  THR A 154     -14.777   4.829  24.694  1.00 16.79     0.146 C 
ATOM    143  CG2 THR A 154     -13.616   4.391  23.822  1.00 20.24     0.042 C 
BRANCH 142 144
ATOM    144  OG1 THR A 154     -15.103   6.189  24.382  1.00 18.84    -0.393 OA
ATOM    145  H06 THR A 154     -14.370   6.595  23.914  1.00 18.84     0.210 HD
ENDBRANCH 142 144
ENDBRANCH 141 142
END_RES THR A 154
BEGIN_RES VAL A 158
REMARK  1 active torsions:
REMARK  status: ('A' for Active; 'I' for Inactive)
REMARK   45  A    between atoms: CA   and  CB  
ROOT
ATOM    146  CA  VAL A 158     -15.487  -0.189  19.892  1.00 15.49     0.180 C 
ENDROOT
BRANCH 146 147
ATOM    147  CB  VAL A 158     -14.291  -0.273  20.822  1.00  6.52     0.009 C 
ATOM    148  CG1 VAL A 158     -13.225  -1.178  20.249  1.00  1.00     0.012 C 
ATOM    149  CG2 VAL A 158     -13.753   1.108  21.038  1.00  5.99     0.012 C 
ENDBRANCH 146 147
END_RES VAL A 158
BEGIN_RES LEU A 161
REMARK  2 active torsions:
REMARK  status: ('A' for Active; 'I' for Inactive)
REMARK   46  A    between atoms: CA   and  CB  
REMARK   47  A    between atoms: CB   and  CG  
ROOT
ATOM    150  CA  LEU A 161     -18.031  -1.858  15.935  1.00 13.31     0.177 C 
ENDROOT
BRANCH 150 151
ATOM    151  CB  LEU A 161     -17.046  -0.706  16.001  1.00 14.13     0.038 C 
BRANCH 151 152
ATOM    152  CG  LEU A 161     -17.418   0.545  15.215  1.00 19.39    -0.020 C 
ATOM    153  CD2 LEU A 161     -18.853   0.926  15.487  1.00 27.75     0.009 C 
ATOM    154  CD1 LEU A 161     -17.225   0.274  13.748  1.00 18.59     0.009 C 
ENDBRANCH 151 152
ENDBRANCH 150 151
END_RES LEU A 161
BEGIN_RES GLN A 168
REMARK  3 active torsions:
REMARK  status: ('A' for Active; 'I' for Inactive)
REMARK   48  A    between atoms: CA   and  CB  
REMARK   49  A    between atoms: CB   and  CG  
REMARK   50  A    between atoms: CG   and  CD  
REMARK       I    between atoms: CD   and  NE2 
ROOT
ATOM    155  CA  GLN A 168     -22.035  -6.020   8.155  1.00 30.94     0.177 C 
ENDROOT
BRANCH 155 156
ATOM    156  CB  GLN A 168     -23.054  -5.218   8.946  1.00 41.76     0.044 C 
BRANCH 156 157
ATOM    157  CG  GLN A 168     -24.341  -5.946   9.224  1.00 61.20     0.105 C 
BRANCH 157 158
ATOM    158  CD  GLN A 168     -24.774  -5.797  10.669  1.00 75.49     0.215 C 
ATOM    159  NE2 GLN A 168     -23.996  -6.381  11.582  1.00 85.00    -0.370 N 
ATOM    160  H06 GLN A 168     -24.233  -6.320  12.562  1.00 85.00     0.159 HD
ATOM    161  H07 GLN A 168     -23.170  -6.885  11.292  1.00 85.00     0.159 HD
ATOM    162  OE1 GLN A 168     -25.801  -5.169  10.967  1.00 73.64    -0.274 OA
ENDBRANCH 157 158
ENDBRANCH 156 157
ENDBRANCH 155 156
END_RES GLN A 168
ENDMDL
MODEL 2
REMARK VINA RESULT:      -6.7      1.076      2.560
REMARK  Name = human_CD1d_brij35_pred.rank_0
REMARK  79 active torsions:
REMARK  status: ('A' for Active; 'I' for Inactive)
REMARK    1  A    between atoms: O_2  and  C_23
REMARK    2  A    between atoms: O_2  and  C_25
REMARK    3  A    between atoms: C_3  and  C_5
REMARK    4  A    between atoms: O_4  and  C_27
REMARK    5  A    between atoms: O_4  and  C_29
REMARK    6  A    between atoms: C_5  and  C_7
REMARK    7  A    between atoms: O_6  and  C_31
REMARK    8  A    between atoms: O_6  and  C_33
REMARK    9  A    between atoms: C_7  and  C_9
REMARK   10  A    between atoms: O_8  and  C_35
REMARK   11  A    between atoms: O_8  and  C_37
REMARK   12  A    between atoms: C_9  and  C_11
REMARK   13  A    between atoms: O_10  and  C_39
REMARK   14  A    between atoms: O_10  and  C_41
REMARK   15  A    between atoms: C_11  and  C_13
REMARK   16  A    between atoms: O_12  and  C_43
REMARK   17  A    between atoms: O_12  and  C_45
REMARK   18  A    between atoms: C_13  and  C_15
REMARK   19  A    between atoms: O_14  and  C_47
REMARK   20  A    between atoms: O_14  and  C_49
REMARK   21  A    between atoms: C_15  and  C_17
REMARK   22  A    between atoms: O_16  and  C_50
REMARK   23  A    between atoms: O_16  and  C_51
REMARK   24  A    between atoms: C_17  and  C_19
REMARK   25  A    between atoms: O_18  and  C_52
REMARK   26  A    between atoms: O_18  and  C_53
REMARK   27  A    between atoms: C_19  and  C_21
REMARK   28  A    between atoms: O_20  and  C_54
REMARK   29  A    between atoms: O_20  and  C_55
REMARK   30  A    between atoms: C_21  and  C_23
REMARK   31  A    between atoms: O_22  and  C_56
REMARK   32  A    between atoms: O_22  and  C_57
REMARK   33  A    between atoms: O_24  and  C_58
REMARK   34  A    between atoms: O_24  and  C_59
REMARK   35  A    between atoms: C_25  and  C_27
REMARK   36  A    between atoms: O_26  and  C_60
REMARK   37  A    between atoms: O_26  and  C_61
REMARK   38  A    between atoms: O_28  and  C_62
REMARK   39  A    between atoms: O_28  and  C_63
REMARK   40  A    between atoms: C_29  and  C_31
REMARK   41  A    between atoms: O_30  and  C_64
REMARK   42  A    between atoms: O_30  and  C_65
REMARK   43  A    between atoms: O_32  and  C_66
REMARK   44  A    between atoms: O_32  and  C_67
REMARK   45  A    between atoms: C_33  and  C_35
REMARK   46  A    between atoms: O_34  and  C_68
REMARK   47  A    between atoms: O_34  and  C_69
REMARK   48  A    between atoms: O_36  and  C_70
REMARK   49  A    between atoms: O_36  and  C_71
REMARK   50  A    between atoms: C_37  and  C_39
REMARK   51  A    between atoms: O_38  and  C_72
REMARK   52  A    between atoms: O_38  and  C_73
REMARK   53  A    between atoms: O_40  and  C_74
REMARK   54  A    between atoms: O_40  and  C_75
REMARK   55  A    between atoms: C_41  and  C_43
REMARK   56  A    between atoms: O_42  and  C_76
REMARK   57  A    between atoms: O_42  and  C_77
REMARK   58  A    between atoms: O_44  and  C_78
REMARK   59  A    between atoms: O_44  and  C_79
REMARK   60  A    between atoms: C_45  and  C_47
REMARK   61  A    between atoms: O_46  and  C_80
REMARK   62  A    between atoms: O_46  and  C_81
REMARK   63  A    between atoms: C_49  and  C_50
REMARK   64  A    between atoms: C_51  and  C_52
REMARK   65  A    between atoms: C_53  and  C_54
REMARK   66  A    between atoms: C_55  and  C_56
REMARK   67  A    between atoms: C_57  and  C_58
REMARK   68  A    between atoms: C_59  and  C_60
REMARK   69  A    between atoms: C_61  and  C_62
REMARK   70  A    between atoms: C_63  and  C_64
REMARK   71  A    between atoms: C_65  and  C_66
REMARK   72  A    between atoms: C_67  and  C_68
REMARK   73  A    between atoms: C_69  and  C_70
REMARK   74  A    between atoms: C_71  and  C_72
REMARK   75  A    between atoms: C_73  and  C_74
REMARK   76  A    between atoms: C_75  and  C_76
REMARK   77  A    between atoms: C_77  and  C_78
REMARK   78  A    between atoms: C_79  and  C_80
REMARK   79  A    between atoms: C_81  and  C_82
REMARK                            x       y       z     vdW  Elec       q    Type
REMARK                         _______ _______ _______ _____ _____    ______ ____
ROOT
ATOM      1  C   UNL     1      -9.087   5.974  17.573  0.00  0.00    +0.000 C 
ENDROOT
BRANCH   1   2
ATOM      2  C   UNL     1     -10.035   7.097  17.183  0.00  0.00    +0.000 C 
BRANCH   2   3
ATOM      3  O   UNL     1      -9.547   7.811  16.034  0.00  0.00    +0.000 OA
BRANCH   3   4
ATOM      4  C   UNL     1     -10.344   7.486  14.883  0.00  0.00    +0.000 C 
BRANCH   4   5
ATOM      5  C   UNL     1      -9.599   6.580  13.921  0.00  0.00    +0.000 C 
BRANCH   5   6
ATOM      6  O   UNL     1      -9.982   5.218  14.209  0.00  0.00    +0.000 OA
BRANCH   6   7
ATOM      7  C   UNL     1      -9.026   4.252  13.779  0.00  0.00    +0.000 C 
BRANCH   7   8
ATOM      8  C   UNL     1      -9.493   3.596  12.471  0.00  0.00    +0.000 C 
BRANCH   8   9
ATOM      9  O   UNL     1      -8.578   3.911  11.402  0.00  0.00    +0.000 OA
BRANCH   9  10
ATOM     10  C   UNL     1      -9.047   4.942  10.554  0.00  0.00    +0.000 C 
BRANCH  10  11
ATOM     11  C   UNL     1      -9.444   4.382   9.161  0.00  0.00    +0.000 C 
BRANCH  11  12
ATOM     12  O   UNL     1      -9.104   5.324   8.153  0.00  0.00    +0.000 OA
BRANCH  12  13
ATOM     13  C   UNL     1     -10.191   5.860   7.409  0.00  0.00    +0.000 C 
BRANCH  13  14
ATOM     14  C   UNL     1     -10.934   4.689   6.710  0.00  0.00    +0.000 C 
BRANCH  14  15
ATOM     15  O   UNL     1     -12.291   5.034   6.370  0.00  0.00    +0.000 OA
BRANCH  15  16
ATOM     16  C   UNL     1     -13.262   4.056   6.633  0.00  0.00    +0.000 C 
BRANCH  16  17
ATOM     17  C   UNL     1     -12.753   3.183   7.760  0.00  0.00    +0.000 C 
BRANCH  17  18
ATOM     18  O   UNL     1     -13.814   2.764   8.633  0.00  0.00    +0.000 OA
BRANCH  18  19
ATOM     19  C   UNL     1     -14.870   2.124   7.982  0.00  0.00    +0.000 C 
BRANCH  19  20
ATOM     20  C   UNL     1     -15.537   1.121   8.908  0.00  0.00    +0.000 C 
BRANCH  20  21
ATOM     21  O   UNL     1     -14.952  -0.156   8.706  0.00  0.00    +0.000 OA
BRANCH  21  22
ATOM     22  C   UNL     1     -15.476  -1.091   9.600  0.00  0.00    +0.000 C 
BRANCH  22  23
ATOM     23  C   UNL     1     -16.221  -0.344  10.714  0.00  0.00    +0.000 C 
BRANCH  23  24
ATOM     24  O   UNL     1     -15.701  -0.718  11.978  0.00  0.00    +0.000 OA
BRANCH  24  25
ATOM     25  C   UNL     1     -14.370  -1.224  11.888  0.00  0.00    +0.000 C 
BRANCH  25  26
ATOM     26  C   UNL     1     -14.103  -2.073  13.152  0.00  0.00    +0.000 C 
BRANCH  26  27
ATOM     27  O   UNL     1     -14.305  -1.257  14.306  0.00  0.00    +0.000 OA
BRANCH  27  28
ATOM     28  C   UNL     1     -13.151  -0.564  14.714  0.00  0.00    +0.000 C 
BRANCH  28  29
ATOM     29  C   UNL     1     -13.248  -0.060  16.129  0.00  0.00    +0.000 C 
BRANCH  29  30
ATOM     30  O   UNL     1     -12.830   1.270  16.188  0.00  0.00    +0.000 OA
BRANCH  30  31
ATOM     31  C   UNL     1     -12.283   1.739  14.971  0.00  0.00    +0.000 C 
BRANCH  31  32
ATOM     32  C   UNL     1     -12.738   3.166  14.748  0.00  0.00    +0.000 C 
BRANCH  32  33
ATOM     33  O   UNL     1     -14.025   3.139  14.187  0.00  0.00    +0.000 OA
BRANCH  33  34
ATOM     34  C   UNL     1     -14.078   2.472  12.971  0.00  0.00    +0.000 C 
BRANCH  34  35
ATOM     35  C   UNL     1     -15.254   2.992  12.170  0.00  0.00    +0.000 C 
BRANCH  35  36
ATOM     36  O   UNL     1     -15.877   4.047  12.889  0.00  0.00    +0.000 OA
BRANCH  36  37
ATOM     37  C   UNL     1     -16.437   5.007  12.020  0.00  0.00    +0.000 C 
BRANCH  37  38
ATOM     38  C   UNL     1     -16.166   4.580  10.567  0.00  0.00    +0.000 C 
BRANCH  38  39
ATOM     39  O   UNL     1     -16.467   5.691   9.762  0.00  0.00    +0.000 OA
BRANCH  39  40
ATOM     40  C   UNL     1     -16.361   5.361   8.348  0.00  0.00    +0.000 C 
BRANCH  40  42
ATOM     41  O   UNL     1     -16.568   7.688   7.778  0.00  0.00    +0.000 OA
ATOM     42  C   UNL     1     -17.130   6.401   7.555  0.00  0.00    +0.000 C 
ENDBRANCH  40  42
ENDBRANCH  39  40
ENDBRANCH  38  39
ENDBRANCH  37  38
ENDBRANCH  36  37
ENDBRANCH  35  36
ENDBRANCH  34  35
ENDBRANCH  33  34
ENDBRANCH  32  33
ENDBRANCH  31  32
ENDBRANCH  30  31
ENDBRANCH  29  30
ENDBRANCH  28  29
ENDBRANCH  27  28
ENDBRANCH  26  27
ENDBRANCH  25  26
ENDBRANCH  24  25
ENDBRANCH  23  24
ENDBRANCH  22  23
ENDBRANCH  21  22
ENDBRANCH  20  21
ENDBRANCH  19  20
ENDBRANCH  18  19
ENDBRANCH  17  18
ENDBRANCH  16  17
ENDBRANCH  15  16
ENDBRANCH  14  15
ENDBRANCH  13  14
ENDBRANCH  12  13
ENDBRANCH  11  12
ENDBRANCH  10  11
ENDBRANCH   9  10
ENDBRANCH   8   9
ENDBRANCH   7   8
ENDBRANCH   6   7
ENDBRANCH   5   6
ENDBRANCH   4   5
ENDBRANCH   3   4
ENDBRANCH   2   3
ENDBRANCH   1   2
BRANCH   1  43
ATOM     43  O   UNL     1      -9.351   5.528  18.896  0.00  0.00    +0.000 OA
BRANCH  43  44
ATOM     44  C   UNL     1     -10.629   5.848  19.326  0.00  0.00    +0.000 C 
BRANCH  44  45
ATOM     45  C   UNL     1     -10.561   6.419  20.746  0.00  0.00    +0.000 C 
BRANCH  45  46
ATOM     46  O   UNL     1     -10.700   7.834  20.670  0.00  0.00    +0.000 OA
BRANCH  46  47
ATOM     47  C   UNL     1     -11.316   8.440  21.765  0.00  0.00    +0.000 C 
BRANCH  47  48
ATOM     48  C   UNL     1     -12.041   7.377  22.607  0.00  0.00    +0.000 C 
BRANCH  48  49
ATOM     49  O   UNL     1     -12.931   8.010  23.455  0.00  0.00    +0.000 OA
BRANCH  49  50
ATOM     50  C   UNL     1     -13.687   9.007  22.781  0.00  0.00    +0.000 C 
BRANCH  50  51
ATOM     51  C   UNL     1     -14.651   9.652  23.771  0.00  0.00    +0.000 C 
BRANCH  51  52
ATOM     52  O   UNL     1     -14.324  11.049  23.903  0.00  0.00    +0.000 OA
BRANCH  52  53
ATOM     53  C   UNL     1     -13.278  11.234  24.863  0.00  0.00    +0.000 C 
BRANCH  53  54
ATOM     54  C   UNL     1     -13.624  10.477  26.155  0.00  0.00    +0.000 C 
BRANCH  54  55
ATOM     55  O   UNL     1     -12.478   9.718  26.564  0.00  0.00    +0.000 OA
BRANCH  55  56
ATOM     56  C   UNL     1     -11.833  10.322  27.674  0.00  0.00    +0.000 C 
BRANCH  56  57
ATOM     57  C   UNL     1     -12.909  10.705  28.651  0.00  0.00    +0.000 C 
BRANCH  57  58
ATOM     58  O   UNL     1     -12.647  10.111  29.912  0.00  0.00    +0.000 OA
BRANCH  58  59
ATOM     59  C   UNL     1     -12.944   8.752  29.930  0.00  0.00    +0.000 C 
BRANCH  59  60
ATOM     60  C   UNL     1     -11.861   8.026  30.710  0.00  0.00    +0.000 C 
BRANCH  60  61
ATOM     61  O   UNL     1     -11.067   7.277  29.802  0.00  0.00    +0.000 OA
BRANCH  61  62
ATOM     62  C   UNL     1      -9.824   7.881  29.526  0.00  0.00    +0.000 C 
BRANCH  62  63
ATOM     63  C   UNL     1      -9.416   7.533  28.089  0.00  0.00    +0.000 C 
BRANCH  63  64
ATOM     64  O   UNL     1     -10.462   6.730  27.552  0.00  0.00    +0.000 OA
BRANCH  64  65
ATOM     65  C   UNL     1     -10.521   6.798  26.193  0.00  0.00    +0.000 C 
BRANCH  65  66
ATOM     66  C   UNL     1     -10.615   5.389  25.562  0.00  0.00    +0.000 C 
BRANCH  66  67
ATOM     67  O   UNL     1      -9.737   5.348  24.437  0.00  0.00    +0.000 OA
BRANCH  67  68
ATOM     68  C   UNL     1      -8.899   6.503  24.378  0.00  0.00    +0.000 C 
BRANCH  68  69
ATOM     69  C   UNL     1      -7.836   6.199  23.301  0.00  0.00    +0.000 C 
BRANCH  69  70
ATOM     70  O   UNL     1      -7.378   4.857  23.587  0.00  0.00    +0.000 OA
BRANCH  70  71
ATOM     71  C   UNL     1      -6.760   4.322  22.428  0.00  0.00    +0.000 C 
BRANCH  71  72
ATOM     72  C   UNL     1      -5.500   3.552  22.937  0.00  0.00    +0.000 C 
BRANCH  72  73
ATOM     73  C   UNL     1      -4.293   4.259  22.326  0.00  0.00    +0.000 C 
BRANCH  73  74
ATOM     74  C   UNL     1      -3.187   4.329  23.382  0.00  0.00    +0.000 C 
BRANCH  74  75
ATOM     75  C   UNL     1      -3.794   4.289  24.757  0.00  0.00    +0.000 C 
BRANCH  75  76
ATOM     76  C   UNL     1      -2.695   4.314  25.778  0.00  0.00    +0.000 C 
BRANCH  76  77
ATOM     77  C   UNL     1      -1.449   4.886  25.130  0.00  0.00    +0.000 C 
BRANCH  77  78
ATOM     78  C   UNL     1      -0.495   5.359  26.228  0.00  0.00    +0.000 C 
BRANCH  78  79
ATOM     79  C   UNL     1       0.181   6.651  25.796  0.00  0.00    +0.000 C 
BRANCH  79  80
ATOM     80  C   UNL     1       0.292   6.739  24.299  0.00  0.00    +0.000 C 
BRANCH  80  82
ATOM     81  C   UNL     1       1.429   8.942  24.282  0.00  0.00    +0.000 C 
ATOM     82  C   UNL     1       0.193   8.177  23.859  0.00  0.00    +0.000 C 
ENDBRANCH  80  82
ENDBRANCH  79  80
ENDBRANCH  78  79
ENDBRANCH  77  78
ENDBRANCH  76  77
ENDBRANCH  75  76
ENDBRANCH  74  75
ENDBRANCH  73  74
ENDBRANCH  72  73
ENDBRANCH  71  72
ENDBRANCH  70  71
ENDBRANCH  69  70
ENDBRANCH  68  69
ENDBRANCH  67  68
ENDBRANCH  66  67
ENDBRANCH  65  66
ENDBRANCH  64  65
ENDBRANCH  63  64
ENDBRANCH  62  63
ENDBRANCH  61  62
ENDBRANCH  60  61
ENDBRANCH  59  60
ENDBRANCH  58  59
ENDBRANCH  57  58
ENDBRANCH  56  57
ENDBRANCH  55  56
ENDBRANCH  54  55
ENDBRANCH  53  54
ENDBRANCH  52  53
ENDBRANCH  51  52
ENDBRANCH  50  51
ENDBRANCH  49  50
ENDBRANCH  48  49
ENDBRANCH  47  48
ENDBRANCH  46  47
ENDBRANCH  45  46
ENDBRANCH  44  45
ENDBRANCH  43  44
ENDBRANCH   1  43
TORSDOF 79
BEGIN_RES LEU A  10
REMARK  2 active torsions:
REMARK  status: ('A' for Active; 'I' for Inactive)
REMARK    1  A    between atoms: CA   and  CB  
REMARK    2  A    between atoms: CB   and  CG  
ROOT
ATOM      1  CA  LEU A  10     -10.775  -4.871   5.898  1.00 25.14     0.177 C 
ENDROOT
BRANCH   1   2
ATOM      2  CB  LEU A  10     -12.191  -4.387   6.226  1.00 17.87     0.038 C 
BRANCH   2   3
ATOM      3  CG  LEU A  10     -12.436  -2.905   5.936  1.00 24.95    -0.020 C 
ATOM      4  CD2 LEU A  10     -13.734  -2.498   6.547  1.00 26.38     0.009 C 
ATOM      5  CD1 LEU A  10     -12.442  -2.638   4.440  1.00 28.12     0.009 C 
ENDBRANCH   2   3
ENDBRANCH   1   2
END_RES LEU A  10
BEGIN_RES CYS A  12
REMARK  2 active torsions:
REMARK  status: ('A' for Active; 'I' for Inactive)
REMARK    3  A    between atoms: CA   and  CB  
REMARK    4  A    between atoms: CB   and  SG  
ROOT
ATOM      6  CA  CYS A  12      -8.555   0.470   8.750  1.00 23.16     0.185 C 
ENDROOT
BRANCH   6   7
ATOM      7  CB  CYS A  12      -9.828   0.763   9.555  1.00 20.43     0.105 C 
BRANCH   7   8
ATOM      8  SG  CYS A  12     -11.344  -0.064   8.984  1.00 24.64    -0.180 SA
ATOM      9  H04 CYS A  12     -12.413   0.545   9.513  1.00 24.64     0.101 HD
ENDBRANCH   7   8
ENDBRANCH   6   7
END_RES CYS A  12
BEGIN_RES GLN A  14
REMARK  3 active torsions:
REMARK  status: ('A' for Active; 'I' for Inactive)
REMARK    5  A    between atoms: CA   and  CB  
REMARK    6  A    between atoms: CB   and  CG  
REMARK    7  A    between atoms: CG   and  CD  
REMARK       I    between atoms: CD   and  NE2 
ROOT
ATOM     10  CA  GLN A  14      -4.645   5.402  11.377  1.00 10.43     0.177 C 
ENDROOT
BRANCH  10  11
ATOM     11  CB  GLN A  14      -5.541   5.549  12.608  1.00 14.45     0.044 C 
BRANCH  11  12
ATOM     12  CG  GLN A  14      -6.463   6.746  12.561  1.00 13.74     0.105 C 
BRANCH  12  13
ATOM     13  CD  GLN A  14      -5.851   7.971  13.196  1.00 16.29     0.215 C 
ATOM     14  NE2 GLN A  14      -6.346   8.338  14.358  1.00  8.57    -0.370 N 
ATOM     15  H06 GLN A  14      -5.975   9.150  14.831  1.00  8.57     0.159 HD
ATOM     16  H07 GLN A  14      -7.097   7.808  14.777  1.00  8.57     0.159 HD
ATOM     17  OE1 GLN A  14      -4.943   8.577  12.649  1.00 23.55    -0.274 OA
ENDBRANCH  12  13
ENDBRANCH  11  12
ENDBRANCH  10  11
END_RES GLN A  14
BEGIN_RES SER A  16
REMARK  2 active torsions:
REMARK  status: ('A' for Active; 'I' for Inactive)
REMARK    8  A    between atoms: CA   and  CB  
REMARK    9  A    between atoms: CB   and  OG  
ROOT
ATOM     18  CA  SER A  16      -1.305  10.019  14.282  1.00  2.34     0.200 C 
ENDROOT
BRANCH  18  19
ATOM     19  CB  SER A  16      -2.242   9.935  15.479  1.00  3.12     0.199 C 
BRANCH  19  20
ATOM     20  OG  SER A  16      -3.442   9.273  15.120  1.00  1.00    -0.398 OA
ATOM     21  H04 SER A  16      -3.305   8.782  14.306  1.00  1.00     0.209 HD
ENDBRANCH  19  20
ENDBRANCH  18  19
END_RES SER A  16
BEGIN_RES LEU A  32
REMARK  2 active torsions:
REMARK  status: ('A' for Active; 'I' for Inactive)
REMARK   10  A    between atoms: CA   and  CB  
REMARK   11  A    between atoms: CB   and  CG  
ROOT
ATOM     22  CA  LEU A  32     -10.272  -4.106   1.587  1.00 16.16     0.177 C 
ENDROOT
BRANCH  22  23
ATOM     23  CB  LEU A  32     -11.613  -3.858   0.880  1.00 12.35     0.038 C 
BRANCH  23  24
ATOM     24  CG  LEU A  32     -12.499  -5.121   0.869  1.00  9.77    -0.020 C 
ATOM     25  CD1 LEU A  32     -13.139  -5.325   2.222  1.00  4.35     0.009 C 
ATOM     26  CD2 LEU A  32     -13.566  -5.019  -0.188  1.00 10.60     0.009 C 
ENDBRANCH  23  24
ENDBRANCH  22  23
END_RES LEU A  32
BEGIN_RES HIS A  38
REMARK  2 active torsions:
REMARK  status: ('A' for Active; 'I' for Inactive)
REMARK   12  A    between atoms: CA   and  CB  
REMARK   13  A    between atoms: CB   and  CG  
ROOT
ATOM     27  CA  HIS A  38     -10.959   4.941   1.621  1.00 16.94     0.182 C 
ENDROOT
BRANCH  27  28
ATOM     28  CB  HIS A  38     -11.810   4.840   2.881  1.00 15.47     0.095 C 
BRANCH  28  29
ATOM     29  CG  HIS A  38     -13.032   3.994   2.718  1.00 18.62     0.053 A 
ATOM     30  CD2 HIS A  38     -14.183   4.218   2.040  1.00 15.06     0.116 A 
ATOM     31  NE2 HIS A  38     -14.963   3.100   2.195  1.00 18.12    -0.359 N 
ATOM     32  CE1 HIS A  38     -14.318   2.224   2.940  1.00 14.78     0.207 A 
ATOM     33  H06 HIS A  38     -15.884   2.970   1.801  1.00 18.12     0.166 HD
ATOM     34  ND1 HIS A  38     -13.150   2.738   3.270  1.00 16.58    -0.247 NA
ENDBRANCH  28  29
ENDBRANCH  27  28
END_RES HIS A  38
BEGIN_RES TRP A  63
REMARK  2 active torsions:
REMARK  status: ('A' for Active; 'I' for Inactive)
REMARK   14  A    between atoms: CA   and  CB  
REMARK   15  A    between atoms: CB   and  CG  
ROOT
ATOM     35  CA  TRP A  63     -22.437   6.257   6.543  1.00 27.04     0.181 C 
ENDROOT
BRANCH  35  36
ATOM     36  CB  TRP A  63     -22.360   6.642   5.068  1.00 31.37     0.075 C 
BRANCH  36  37
ATOM     37  CG  TRP A  63     -20.955   6.714   4.509  1.00 34.37    -0.028 A 
ATOM     38  CD2 TRP A  63     -19.910   5.743   4.660  1.00 33.79    -0.002 A 
ATOM     39  CE3 TRP A  63     -19.798   4.535   5.351  1.00 32.99     0.014 A 
ATOM     40  CE2 TRP A  63     -18.804   6.201   3.911  1.00 35.84     0.042 A 
ATOM     41  CZ3 TRP A  63     -18.605   3.830   5.275  1.00 32.93     0.001 A 
ATOM     42  CH2 TRP A  63     -17.522   4.313   4.522  1.00 39.24     0.002 A 
ATOM     43  CZ2 TRP A  63     -17.603   5.493   3.833  1.00 37.99     0.030 A 
ATOM     44  NE1 TRP A  63     -19.163   7.390   3.338  1.00 37.98    -0.365 N 
ATOM     45  H06 TRP A  63     -18.576   7.956   2.743  1.00 37.98     0.165 HD
ATOM     46  CD1 TRP A  63     -20.453   7.689   3.705  1.00 38.16     0.096 A 
ENDBRANCH  36  37
ENDBRANCH  35  36
END_RES TRP A  63
BEGIN_RES LEU A  66
REMARK  2 active torsions:
REMARK  status: ('A' for Active; 'I' for Inactive)
REMARK   16  A    between atoms: CA   and  CB  
REMARK   17  A    between atoms: CB   and  CG  
ROOT
ATOM     47  CA  LEU A  66     -20.004   6.489  11.120  1.00 10.90     0.177 C 
ENDROOT
BRANCH  47  48
ATOM     48  CB  LEU A  66     -19.626   5.453  10.069  1.00 13.57     0.038 C 
BRANCH  48  49
ATOM     49  CG  LEU A  66     -20.078   4.014  10.311  1.00  8.73    -0.020 C 
ATOM     50  CD1 LEU A  66     -19.370   3.070   9.375  1.00 14.23     0.009 C 
ATOM     51  CD2 LEU A  66     -19.771   3.651  11.741  1.00  1.92     0.009 C 
ENDBRANCH  48  49
ENDBRANCH  47  48
END_RES LEU A  66
BEGIN_RES PHE A  70
REMARK  2 active torsions:
REMARK  status: ('A' for Active; 'I' for Inactive)
REMARK   18  A    between atoms: CA   and  CB  
REMARK   19  A    between atoms: CB   and  CG  
ROOT
ATOM     52  CA  PHE A  70     -14.974   9.434  13.165  1.00  8.78     0.180 C 
ENDROOT
BRANCH  52  53
ATOM     53  CB  PHE A  70     -14.707   9.132  11.681  1.00  6.33     0.073 C 
BRANCH  53  54
ATOM     54  CG  PHE A  70     -13.973   7.838  11.456  1.00  3.42    -0.056 A 
ATOM     55  CD1 PHE A  70     -13.559   7.056  12.524  1.00 13.88     0.007 A 
ATOM     56  CE1 PHE A  70     -12.831   5.872  12.308  1.00 12.71     0.001 A 
ATOM     57  CZ  PHE A  70     -12.517   5.468  11.010  1.00  4.21     0.000 A 
ATOM     58  CE2 PHE A  70     -12.927   6.238   9.938  1.00  2.83     0.001 A 
ATOM     59  CD2 PHE A  70     -13.653   7.420  10.164  1.00  1.00     0.007 A 
ENDBRANCH  53  54
ENDBRANCH  52  53
END_RES PHE A  70
BEGIN_RES TYR A  73
REMARK  3 active torsions:
REMARK  status: ('A' for Active; 'I' for Inactive)
REMARK   20  A    between atoms: CA   and  CB  
REMARK   21  A    between atoms: CB   and  CG  
REMARK   22  A    between atoms: CZ   and  OH  
ROOT
ATOM     60  CA  TYR A  73     -13.212  10.166  17.260  1.00 12.17     0.180 C 
ENDROOT
BRANCH  60  61
ATOM     61  CB  TYR A  73     -13.301   8.846  16.517  1.00 12.84     0.073 C 
BRANCH  61  62
ATOM     62  CG  TYR A  73     -13.653   7.701  17.401  1.00 15.89    -0.056 A 
ATOM     63  CD1 TYR A  73     -13.836   6.436  16.888  1.00 16.00     0.010 A 
ATOM     64  CE1 TYR A  73     -14.196   5.369  17.710  1.00 13.55     0.037 A 
ATOM     65  CZ  TYR A  73     -14.374   5.585  19.062  1.00 18.13     0.065 A 
ATOM     66  CE2 TYR A  73     -14.196   6.839  19.600  1.00 15.89     0.037 A 
ATOM     67  CD2 TYR A  73     -13.836   7.891  18.766  1.00 21.86     0.010 A 
BRANCH  65  68
ATOM     68  OH  TYR A  73     -14.723   4.548  19.890  1.00 12.12    -0.361 OA
ATOM     69  H08 TYR A  73     -14.911   3.767  19.365  1.00 12.12     0.217 HD
ENDBRANCH  65  68
ENDBRANCH  61  62
ENDBRANCH  60  61
END_RES TYR A  73
BEGIN_RES PHE A  77
REMARK  2 active torsions:
REMARK  status: ('A' for Active; 'I' for Inactive)
REMARK   23  A    between atoms: CA   and  CB  
REMARK   24  A    between atoms: CB   and  CG  
ROOT
ATOM     70  CA  PHE A  77      -8.400  10.581  20.110  1.00 17.17     0.180 C 
ENDROOT
BRANCH  70  71
ATOM     71  CB  PHE A  77      -8.228   9.750  18.851  1.00 10.44     0.073 C 
BRANCH  71  72
ATOM     72  CG  PHE A  77      -7.099   8.771  18.925  1.00  6.07    -0.056 A 
ATOM     73  CD2 PHE A  77      -7.005   7.889  19.977  1.00  9.61     0.007 A 
ATOM     74  CE2 PHE A  77      -5.960   6.975  20.053  1.00  1.00     0.001 A 
ATOM     75  CZ  PHE A  77      -4.998   6.942  19.058  1.00  1.92     0.000 A 
ATOM     76  CE1 PHE A  77      -5.078   7.816  17.998  1.00  9.25     0.001 A 
ATOM     77  CD1 PHE A  77      -6.130   8.729  17.935  1.00  9.63     0.007 A 
ENDBRANCH  71  72
ENDBRANCH  70  71
END_RES PHE A  77
BEGIN_RES LEU A  96
REMARK  2 active torsions:
REMARK  status: ('A' for Active; 'I' for Inactive)
REMARK   25  A    between atoms: CA   and  CB  
REMARK   26  A    between atoms: CB   and  CG  
ROOT
ATOM     78  CA  LEU A  96       0.717   6.481  17.359  1.00 16.08     0.177 C 
ENDROOT
BRANCH  78  79
ATOM     79  CB  LEU A  96      -0.370   7.101  18.230  1.00 18.83     0.038 C 
BRANCH  79  80
ATOM     80  CG  LEU A  96      -0.095   7.034  19.732  1.00 19.03    -0.020 C 
ATOM     81  CD1 LEU A  96       0.617   8.298  20.155  1.00 28.17     0.009 C 
ATOM     82  CD2 LEU A  96      -1.392   6.935  20.501  1.00 22.01     0.009 C 
ENDBRANCH  79  80
ENDBRANCH  78  79
END_RES LEU A  96
BEGIN_RES VAL A  98
REMARK  1 active torsions:
REMARK  status: ('A' for Active; 'I' for Inactive)
REMARK   27  A    between atoms: CA   and  CB  
ROOT
ATOM     83  CA  VAL A  98      -3.928   2.082  14.897  1.00 19.83     0.180 C 
ENDROOT
BRANCH  83  84
ATOM     84  CB  VAL A  98      -5.203   2.807  15.281  1.00 17.87     0.009 C 
ATOM     85  CG2 VAL A  98      -5.128   3.261  16.716  1.00 29.90     0.012 C 
ATOM     86  CG1 VAL A  98      -6.390   1.891  15.069  1.00 14.79     0.012 C 
ENDBRANCH  83  84
END_RES VAL A  98
BEGIN_RES ASN A 112
REMARK  2 active torsions:
REMARK  status: ('A' for Active; 'I' for Inactive)
REMARK   28  A    between atoms: CA   and  CB  
REMARK   29  A    between atoms: CB   and  CG  
REMARK       I    between atoms: CG   and  ND2 
ROOT
ATOM     87  CA  ASN A 112     -11.790  -8.793  14.069  1.00 37.70     0.185 C 
ENDROOT
BRANCH  87  88
ATOM     88  CB  ASN A 112     -12.992  -7.945  14.465  1.00 26.24     0.137 C 
BRANCH  88  89
ATOM     89  CG  ASN A 112     -13.941  -8.662  15.399  1.00 21.77     0.217 C 
ATOM     90  ND2 ASN A 112     -13.593  -8.687  16.685  1.00  9.31    -0.370 N 
ATOM     91  H04 ASN A 112     -14.185  -9.153  17.359  1.00  9.31     0.159 HD
ATOM     92  H05 ASN A 112     -12.738  -8.241  16.986  1.00  9.31     0.159 HD
ATOM     93  OD1 ASN A 112     -14.974  -9.193  14.972  1.00 21.61    -0.274 OA
ENDBRANCH  88  89
ENDBRANCH  87  88
END_RES ASN A 112
BEGIN_RES PHE A 114
REMARK  2 active torsions:
REMARK  status: ('A' for Active; 'I' for Inactive)
REMARK   30  A    between atoms: CA   and  CB  
REMARK   31  A    between atoms: CB   and  CG  
ROOT
ATOM     94  CA  PHE A 114      -7.754  -3.619  17.012  1.00 26.06     0.180 C 
ENDROOT
BRANCH  94  95
ATOM     95  CB  PHE A 114      -8.890  -3.080  17.867  1.00 19.95     0.073 C 
BRANCH  95  96
ATOM     96  CG  PHE A 114      -8.728  -1.639  18.226  1.00 17.65    -0.056 A 
ATOM     97  CD1 PHE A 114      -9.020  -1.187  19.511  1.00 13.01     0.007 A 
ATOM     98  CE1 PHE A 114      -8.898   0.157  19.837  1.00  6.74     0.001 A 
ATOM     99  CZ  PHE A 114      -8.477   1.073  18.877  1.00  6.27     0.000 A 
ATOM    100  CE2 PHE A 114      -8.183   0.635  17.596  1.00 17.36     0.001 A 
ATOM    101  CD2 PHE A 114      -8.309  -0.720  17.274  1.00 18.39     0.007 A 
ENDBRANCH  95  96
ENDBRANCH  94  95
END_RES PHE A 114
BEGIN_RES VAL A 116
REMARK  1 active torsions:
REMARK  status: ('A' for Active; 'I' for Inactive)
REMARK   32  A    between atoms: CA   and  CB  
ROOT
ATOM    102  CA  VAL A 116      -2.467   0.283  18.565  1.00 13.48     0.180 C 
ENDROOT
BRANCH 102 103
ATOM    103  CB  VAL A 116      -3.101   1.238  19.599  1.00 20.86     0.009 C 
ATOM    104  CG1 VAL A 116      -2.653   2.674  19.311  1.00 25.01     0.012 C 
ATOM    105  CG2 VAL A 116      -4.607   1.113  19.595  1.00 25.34     0.012 C 
ENDBRANCH 102 103
END_RES VAL A 116
BEGIN_RES ILE A 123
REMARK  2 active torsions:
REMARK  status: ('A' for Active; 'I' for Inactive)
REMARK   33  A    between atoms: CA   and  CB  
REMARK   34  A    between atoms: CB   and  CG1 
ROOT
ATOM    106  CA  ILE A 123       1.557  -1.626  23.222  1.00 15.07     0.180 C 
ENDROOT
BRANCH 106 107
ATOM    107  CB  ILE A 123       1.697  -0.112  23.461  1.00 14.41     0.013 C 
ATOM    108  CG2 ILE A 123       3.113   0.213  23.904  1.00 18.35     0.012 C 
BRANCH 107 109
ATOM    109  CG1 ILE A 123       1.351   0.660  22.190  1.00 15.23     0.002 C 
ATOM    110  CD1 ILE A 123       0.242   1.667  22.376  1.00 14.67     0.005 C 
ENDBRANCH 107 109
ENDBRANCH 106 107
END_RES ILE A 123
BEGIN_RES LEU A 124
REMARK  2 active torsions:
REMARK  status: ('A' for Active; 'I' for Inactive)
REMARK   35  A    between atoms: CA   and  CB  
REMARK   36  A    between atoms: CB   and  CG  
ROOT
ATOM    111  CA  LEU A 124      -2.057  -2.686  23.524  1.00 11.86     0.177 C 
ENDROOT
BRANCH 111 112
ATOM    112  CB  LEU A 124      -2.698  -1.652  24.429  1.00 14.60     0.038 C 
BRANCH 112 113
ATOM    113  CG  LEU A 124      -2.570  -0.244  23.868  1.00 16.19    -0.020 C 
ATOM    114  CD1 LEU A 124      -3.928   0.188  23.281  1.00 22.07     0.009 C 
ATOM    115  CD2 LEU A 124      -2.106   0.691  24.957  1.00  9.12     0.009 C 
ENDBRANCH 112 113
ENDBRANCH 111 112
END_RES LEU A 124
BEGIN_RES PHE A 126
REMARK  2 active torsions:
REMARK  status: ('A' for Active; 'I' for Inactive)
REMARK   37  A    between atoms: CA   and  CB  
REMARK   38  A    between atoms: CB   and  CG  
ROOT
ATOM    116  CA  PHE A 126      -8.784  -4.792  22.233  1.00 23.15     0.180 C 
ENDROOT
BRANCH 116 117
ATOM    117  CB  PHE A 126      -9.823  -4.011  21.461  1.00 20.65     0.073 C 
BRANCH 117 118
ATOM    118  CG  PHE A 126     -10.941  -3.528  22.300  1.00 23.65    -0.056 A 
ATOM    119  CD2 PHE A 126     -10.751  -2.495  23.202  1.00 36.63     0.007 A 
ATOM    120  CE2 PHE A 126     -11.811  -2.037  23.995  1.00 36.27     0.001 A 
ATOM    121  CZ  PHE A 126     -13.064  -2.621  23.880  1.00 18.06     0.000 A 
ATOM    122  CE1 PHE A 126     -13.257  -3.649  22.980  1.00  5.50     0.001 A 
ATOM    123  CD1 PHE A 126     -12.197  -4.097  22.192  1.00 15.29     0.007 A 
ENDBRANCH 117 118
ENDBRANCH 116 117
END_RES PHE A 126
BEGIN_RES TRP A 131
REMARK  2 active torsions:
REMARK  status: ('A' for Active; 'I' for Inactive)
REMARK   39  A    between atoms: CA   and  CB  
REMARK   40  A    between atoms: CB   and  CG  
ROOT
ATOM    124  CA  TRP A 131      -8.096  -3.335  26.542  1.00 14.52     0.181 C 
ENDROOT
BRANCH 124 125
ATOM    125  CB  TRP A 131      -7.651  -1.877  26.607  1.00 13.06     0.075 C 
BRANCH 125 126
ATOM    126  CG  TRP A 131      -8.003  -1.065  25.380  1.00 16.97    -0.028 A 
ATOM    127  CD2 TRP A 131      -9.062  -0.111  25.266  1.00 11.34    -0.002 A 
ATOM    128  CE2 TRP A 131      -9.023   0.410  23.957  1.00  5.87     0.042 A 
ATOM    129  CE3 TRP A 131     -10.043   0.354  26.148  1.00  3.80     0.014 A 
ATOM    130  CZ2 TRP A 131      -9.926   1.375  23.509  1.00  1.35     0.030 A 
ATOM    131  NE1 TRP A 131      -7.988  -0.201  23.303  1.00 13.90    -0.365 N 
ATOM    132  CH2 TRP A 131     -10.878   1.813  24.397  1.00  1.00     0.002 A 
ATOM    133  CZ3 TRP A 131     -10.943   1.309  25.709  1.00  1.00     0.001 A 
ATOM    134  CD1 TRP A 131      -7.379  -1.085  24.163  1.00 17.22     0.096 A 
ATOM    135  H07 TRP A 131      -7.716  -0.031  22.346  1.00 13.90     0.165 HD
ENDBRANCH 125 126
ENDBRANCH 124 125
END_RES TRP A 131
BEGIN_RES LEU A 148
REMARK  2 active torsions:
REMARK  status: ('A' for Active; 'I' for Inactive)
REMARK   41  A    between atoms: CA   and  CB  
REMARK   42  A    between atoms: CB   and  CG  
ROOT
ATOM    136  CA  LEU A 148      -9.018   3.259  29.295  1.00 16.99     0.177 C 
ENDROOT
BRANCH 136 137
ATOM    137  CB  LEU A 148      -8.166   2.574  28.236  1.00  6.39     0.038 C 
BRANCH 137 138
ATOM    138  CG  LEU A 148      -7.888   3.240  26.904  1.00  1.00    -0.020 C 
ATOM    139  CD2 LEU A 148      -6.799   2.511  26.174  1.00  1.00     0.009 C 
ATOM    140  CD1 LEU A 148      -7.483   4.679  27.167  1.00  2.71     0.009 C 
ENDBRANCH 137 138
ENDBRANCH 136 137
END_RES LEU A 148
BEGIN_RES THR A 154
REMARK  2 active torsions:
REMARK  status: ('A' for Active; 'I' for Inactive)
REMARK   43  A    between atoms: CA   and  CB  
REMARK   44  A    between atoms: CB   and  OG1 
ROOT
ATOM    141  CA  THR A 154     -15.990   3.959  24.426  1.00 20.45     0.205 C 
ENDROOT
BRANCH 141 142
ATOM    142  CB  THR A 154     -14.777   4.829  24.694  1.00 16.79     0.146 C 
ATOM    143  CG2 THR A 154     -13.584   4.320  23.909  1.00 20.24     0.042 C 
BRANCH 142 144
ATOM    144  OG1 THR A 154     -15.066   6.170  24.279  1.00 18.84    -0.393 OA
ATOM    145  H06 THR A 154     -15.940   6.420  24.588  1.00 18.84     0.210 HD
ENDBRANCH 142 144
ENDBRANCH 141 142
END_RES THR A 154
BEGIN_RES VAL A 158
REMARK  1 active torsions:
REMARK  status: ('A' for Active; 'I' for Inactive)
REMARK   45  A    between atoms: CA   and  CB  
ROOT
ATOM    146  CA  VAL A 158     -15.487  -0.189  19.892  1.00 15.49     0.180 C 
ENDROOT
BRANCH 146 147
ATOM    147  CB  VAL A 158     -14.291  -0.273  20.822  1.00  6.52     0.009 C 
ATOM    148  CG1 VAL A 158     -13.226  -1.180  20.250  1.00  1.00     0.012 C 
ATOM    149  CG2 VAL A 158     -13.752   1.107  21.036  1.00  5.99     0.012 C 
ENDBRANCH 146 147
END_RES VAL A 158
BEGIN_RES LEU A 161
REMARK  2 active torsions:
REMARK  status: ('A' for Active; 'I' for Inactive)
REMARK   46  A    between atoms: CA   and  CB  
REMARK   47  A    between atoms: CB   and  CG  
ROOT
ATOM    150  CA  LEU A 161     -18.031  -1.858  15.935  1.00 13.31     0.177 C 
ENDROOT
BRANCH 150 151
ATOM    151  CB  LEU A 161     -17.046  -0.706  16.001  1.00 14.13     0.038 C 
BRANCH 151 152
ATOM    152  CG  LEU A 161     -17.447   0.567  15.267  1.00 19.39    -0.020 C 
ATOM    153  CD2 LEU A 161     -16.561   1.715  15.689  1.00 27.75     0.009 C 
ATOM    154  CD1 LEU A 161     -18.883   0.881  15.586  1.00 18.59     0.009 C 
ENDBRANCH 151 152
ENDBRANCH 150 151
END_RES LEU A 161
BEGIN_RES GLN A 168
REMARK  3 active torsions:
REMARK  status: ('A' for Active; 'I' for Inactive)
REMARK   48  A    between atoms: CA   and  CB  
REMARK   49  A    between atoms: CB   and  CG  
REMARK   50  A    between atoms: CG   and  CD  
REMARK       I    between atoms: CD   and  NE2 
ROOT
ATOM    155  CA  GLN A 168     -22.035  -6.020   8.155  1.00 30.94     0.177 C 
ENDROOT
BRANCH 155 156
ATOM    156  CB  GLN A 168     -23.054  -5.218   8.946  1.00 41.76     0.044 C 
BRANCH 156 157
ATOM    157  CG  GLN A 168     -24.442  -5.800   8.946  1.00 61.20     0.105 C 
BRANCH 157 158
ATOM    158  CD  GLN A 168     -24.850  -6.286  10.323  1.00 75.49     0.215 C 
ATOM    159  NE2 GLN A 168     -26.083  -5.966  10.720  1.00 85.00    -0.370 N 
ATOM    160  H06 GLN A 168     -26.413  -6.259  11.629  1.00 85.00     0.159 HD
ATOM    161  H07 GLN A 168     -26.686  -5.429  10.112  1.00 85.00     0.159 HD
ATOM    162  OE1 GLN A 168     -24.068  -6.939  11.028  1.00 73.64    -0.274 OA
ENDBRANCH 157 158
ENDBRANCH 156 157
ENDBRANCH 155 156
END_RES GLN A 168
ENDMDL
MODEL 3
REMARK VINA RESULT:      -6.6      1.107      2.179
REMARK  Name = human_CD1d_brij35_pred.rank_0
REMARK  79 active torsions:
REMARK  status: ('A' for Active; 'I' for Inactive)
REMARK    1  A    between atoms: O_2  and  C_23
REMARK    2  A    between atoms: O_2  and  C_25
REMARK    3  A    between atoms: C_3  and  C_5
REMARK    4  A    between atoms: O_4  and  C_27
REMARK    5  A    between atoms: O_4  and  C_29
REMARK    6  A    between atoms: C_5  and  C_7
REMARK    7  A    between atoms: O_6  and  C_31
REMARK    8  A    between atoms: O_6  and  C_33
REMARK    9  A    between atoms: C_7  and  C_9
REMARK   10  A    between atoms: O_8  and  C_35
REMARK   11  A    between atoms: O_8  and  C_37
REMARK   12  A    between atoms: C_9  and  C_11
REMARK   13  A    between atoms: O_10  and  C_39
REMARK   14  A    between atoms: O_10  and  C_41
REMARK   15  A    between atoms: C_11  and  C_13
REMARK   16  A    between atoms: O_12  and  C_43
REMARK   17  A    between atoms: O_12  and  C_45
REMARK   18  A    between atoms: C_13  and  C_15
REMARK   19  A    between atoms: O_14  and  C_47
REMARK   20  A    between atoms: O_14  and  C_49
REMARK   21  A    between atoms: C_15  and  C_17
REMARK   22  A    between atoms: O_16  and  C_50
REMARK   23  A    between atoms: O_16  and  C_51
REMARK   24  A    between atoms: C_17  and  C_19
REMARK   25  A    between atoms: O_18  and  C_52
REMARK   26  A    between atoms: O_18  and  C_53
REMARK   27  A    between atoms: C_19  and  C_21
REMARK   28  A    between atoms: O_20  and  C_54
REMARK   29  A    between atoms: O_20  and  C_55
REMARK   30  A    between atoms: C_21  and  C_23
REMARK   31  A    between atoms: O_22  and  C_56
REMARK   32  A    between atoms: O_22  and  C_57
REMARK   33  A    between atoms: O_24  and  C_58
REMARK   34  A    between atoms: O_24  and  C_59
REMARK   35  A    between atoms: C_25  and  C_27
REMARK   36  A    between atoms: O_26  and  C_60
REMARK   37  A    between atoms: O_26  and  C_61
REMARK   38  A    between atoms: O_28  and  C_62
REMARK   39  A    between atoms: O_28  and  C_63
REMARK   40  A    between atoms: C_29  and  C_31
REMARK   41  A    between atoms: O_30  and  C_64
REMARK   42  A    between atoms: O_30  and  C_65
REMARK   43  A    between atoms: O_32  and  C_66
REMARK   44  A    between atoms: O_32  and  C_67
REMARK   45  A    between atoms: C_33  and  C_35
REMARK   46  A    between atoms: O_34  and  C_68
REMARK   47  A    between atoms: O_34  and  C_69
REMARK   48  A    between atoms: O_36  and  C_70
REMARK   49  A    between atoms: O_36  and  C_71
REMARK   50  A    between atoms: C_37  and  C_39
REMARK   51  A    between atoms: O_38  and  C_72
REMARK   52  A    between atoms: O_38  and  C_73
REMARK   53  A    between atoms: O_40  and  C_74
REMARK   54  A    between atoms: O_40  and  C_75
REMARK   55  A    between atoms: C_41  and  C_43
REMARK   56  A    between atoms: O_42  and  C_76
REMARK   57  A    between atoms: O_42  and  C_77
REMARK   58  A    between atoms: O_44  and  C_78
REMARK   59  A    between atoms: O_44  and  C_79
REMARK   60  A    between atoms: C_45  and  C_47
REMARK   61  A    between atoms: O_46  and  C_80
REMARK   62  A    between atoms: O_46  and  C_81
REMARK   63  A    between atoms: C_49  and  C_50
REMARK   64  A    between atoms: C_51  and  C_52
REMARK   65  A    between atoms: C_53  and  C_54
REMARK   66  A    between atoms: C_55  and  C_56
REMARK   67  A    between atoms: C_57  and  C_58
REMARK   68  A    between atoms: C_59  and  C_60
REMARK   69  A    between atoms: C_61  and  C_62
REMARK   70  A    between atoms: C_63  and  C_64
REMARK   71  A    between atoms: C_65  and  C_66
REMARK   72  A    between atoms: C_67  and  C_68
REMARK   73  A    between atoms: C_69  and  C_70
REMARK   74  A    between atoms: C_71  and  C_72
REMARK   75  A    between atoms: C_73  and  C_74
REMARK   76  A    between atoms: C_75  and  C_76
REMARK   77  A    between atoms: C_77  and  C_78
REMARK   78  A    between atoms: C_79  and  C_80
REMARK   79  A    between atoms: C_81  and  C_82
REMARK                            x       y       z     vdW  Elec       q    Type
REMARK                         _______ _______ _______ _____ _____    ______ ____
ROOT
ATOM      1  C   UNL     1     -10.054   5.830  18.726  0.00  0.00    +0.000 C 
ENDROOT
BRANCH   1   2
ATOM      2  C   UNL     1      -9.629   6.504  17.432  0.00  0.00    +0.000 C 
BRANCH   2   3
ATOM      3  O   UNL     1      -9.701   5.590  16.323  0.00  0.00    +0.000 OA
BRANCH   3   4
ATOM      4  C   UNL     1      -9.837   6.324  15.096  0.00  0.00    +0.000 C 
BRANCH   4   5
ATOM      5  C   UNL     1      -9.641   5.434  13.883  0.00  0.00    +0.000 C 
BRANCH   5   6
ATOM      6  O   UNL     1      -8.688   4.408  14.236  0.00  0.00    +0.000 OA
BRANCH   6   7
ATOM      7  C   UNL     1      -8.524   3.410  13.231  0.00  0.00    +0.000 C 
BRANCH   7   8
ATOM      8  C   UNL     1      -9.460   3.696  12.048  0.00  0.00    +0.000 C 
BRANCH   8   9
ATOM      9  O   UNL     1      -8.693   3.909  10.846  0.00  0.00    +0.000 OA
BRANCH   9  10
ATOM     10  C   UNL     1      -9.101   5.054  10.122  0.00  0.00    +0.000 C 
BRANCH  10  11
ATOM     11  C   UNL     1      -9.450   4.691   8.653  0.00  0.00    +0.000 C 
BRANCH  11  12
ATOM     12  O   UNL     1      -9.442   5.867   7.855  0.00  0.00    +0.000 OA
BRANCH  12  13
ATOM     13  C   UNL     1     -10.353   5.885   6.763  0.00  0.00    +0.000 C 
BRANCH  13  14
ATOM     14  C   UNL     1     -11.326   4.684   6.913  0.00  0.00    +0.000 C 
BRANCH  14  15
ATOM     15  O   UNL     1     -12.692   5.057   6.652  0.00  0.00    +0.000 OA
BRANCH  15  16
ATOM     16  C   UNL     1     -13.656   4.057   6.855  0.00  0.00    +0.000 C 
BRANCH  16  17
ATOM     17  C   UNL     1     -14.853   4.379   5.986  0.00  0.00    +0.000 C 
BRANCH  17  18
ATOM     18  O   UNL     1     -15.273   5.744   6.139  0.00  0.00    +0.000 OA
BRANCH  18  19
ATOM     19  C   UNL     1     -16.496   5.895   6.796  0.00  0.00    +0.000 C 
BRANCH  19  20
ATOM     20  C   UNL     1     -16.419   7.025   7.810  0.00  0.00    +0.000 C 
BRANCH  20  21
ATOM     21  O   UNL     1     -16.517   6.481   9.117  0.00  0.00    +0.000 OA
BRANCH  21  22
ATOM     22  C   UNL     1     -16.554   5.086   9.074  0.00  0.00    +0.000 C 
BRANCH  22  23
ATOM     23  C   UNL     1     -15.992   4.539  10.392  0.00  0.00    +0.000 C 
BRANCH  23  24
ATOM     24  O   UNL     1     -16.423   5.348  11.474  0.00  0.00    +0.000 OA
BRANCH  24  25
ATOM     25  C   UNL     1     -16.544   4.609  12.688  0.00  0.00    +0.000 C 
BRANCH  25  26
ATOM     26  C   UNL     1     -15.928   3.211  12.451  0.00  0.00    +0.000 C 
BRANCH  26  27
ATOM     27  O   UNL     1     -16.893   2.217  12.800  0.00  0.00    +0.000 OA
BRANCH  27  28
ATOM     28  C   UNL     1     -17.140   1.289  11.772  0.00  0.00    +0.000 C 
BRANCH  28  29
ATOM     29  C   UNL     1     -17.050  -0.137  12.247  0.00  0.00    +0.000 C 
BRANCH  29  30
ATOM     30  O   UNL     1     -17.010  -1.000  11.151  0.00  0.00    +0.000 OA
BRANCH  30  31
ATOM     31  C   UNL     1     -16.539  -0.382   9.969  0.00  0.00    +0.000 C 
BRANCH  31  32
ATOM     32  C   UNL     1     -15.248  -1.050   9.549  0.00  0.00    +0.000 C 
BRANCH  32  33
ATOM     33  O   UNL     1     -14.205  -0.117   9.669  0.00  0.00    +0.000 OA
BRANCH  33  34
ATOM     34  C   UNL     1     -13.650  -0.080  10.942  0.00  0.00    +0.000 C 
BRANCH  34  35
ATOM     35  C   UNL     1     -12.816  -1.326  11.157  0.00  0.00    +0.000 C 
BRANCH  35  36
ATOM     36  O   UNL     1     -12.593  -1.503  12.549  0.00  0.00    +0.000 OA
BRANCH  36  37
ATOM     37  C   UNL     1     -13.742  -1.185  13.302  0.00  0.00    +0.000 C 
BRANCH  37  38
ATOM     38  C   UNL     1     -13.302  -0.571  14.644  0.00  0.00    +0.000 C 
BRANCH  38  39
ATOM     39  O   UNL     1     -13.882   0.707  14.707  0.00  0.00    +0.000 OA
BRANCH  39  40
ATOM     40  C   UNL     1     -13.010   1.710  14.115  0.00  0.00    +0.000 C 
BRANCH  40  42
ATOM     41  O   UNL     1     -11.952   3.310  15.565  0.00  0.00    +0.000 OA
ATOM     42  C   UNL     1     -13.168   3.003  14.896  0.00  0.00    +0.000 C 
ENDBRANCH  40  42
ENDBRANCH  39  40
ENDBRANCH  38  39
ENDBRANCH  37  38
ENDBRANCH  36  37
ENDBRANCH  35  36
ENDBRANCH  34  35
ENDBRANCH  33  34
ENDBRANCH  32  33
ENDBRANCH  31  32
ENDBRANCH  30  31
ENDBRANCH  29  30
ENDBRANCH  28  29
ENDBRANCH  27  28
ENDBRANCH  26  27
ENDBRANCH  25  26
ENDBRANCH  24  25
ENDBRANCH  23  24
ENDBRANCH  22  23
ENDBRANCH  21  22
ENDBRANCH  20  21
ENDBRANCH  19  20
ENDBRANCH  18  19
ENDBRANCH  17  18
ENDBRANCH  16  17
ENDBRANCH  15  16
ENDBRANCH  14  15
ENDBRANCH  13  14
ENDBRANCH  12  13
ENDBRANCH  11  12
ENDBRANCH  10  11
ENDBRANCH   9  10
ENDBRANCH   8   9
ENDBRANCH   7   8
ENDBRANCH   6   7
ENDBRANCH   5   6
ENDBRANCH   4   5
ENDBRANCH   3   4
ENDBRANCH   2   3
ENDBRANCH   1   2
BRANCH   1  43
ATOM     43  O   UNL     1     -10.010   6.746  19.811  0.00  0.00    +0.000 OA
BRANCH  43  44
ATOM     44  C   UNL     1     -11.252   6.952  20.391  0.00  0.00    +0.000 C 
BRANCH  44  45
ATOM     45  C   UNL     1     -11.459   8.450  20.633  0.00  0.00    +0.000 C 
BRANCH  45  46
ATOM     46  O   UNL     1     -11.735   8.649  22.016  0.00  0.00    +0.000 OA
BRANCH  46  47
ATOM     47  C   UNL     1     -13.053   8.415  22.408  0.00  0.00    +0.000 C 
BRANCH  47  48
ATOM     48  C   UNL     1     -13.315   9.073  23.772  0.00  0.00    +0.000 C 
BRANCH  48  49
ATOM     49  O   UNL     1     -14.342   9.989  23.637  0.00  0.00    +0.000 OA
BRANCH  49  50
ATOM     50  C   UNL     1     -14.289  10.996  24.638  0.00  0.00    +0.000 C 
BRANCH  50  51
ATOM     51  C   UNL     1     -12.843  11.168  25.091  0.00  0.00    +0.000 C 
BRANCH  51  52
ATOM     52  O   UNL     1     -12.814  11.322  26.524  0.00  0.00    +0.000 OA
BRANCH  52  53
ATOM     53  C   UNL     1     -12.453  10.091  27.157  0.00  0.00    +0.000 C 
BRANCH  53  54
ATOM     54  C   UNL     1     -11.390  10.356  28.234  0.00  0.00    +0.000 C 
BRANCH  54  55
ATOM     55  O   UNL     1     -11.237  11.773  28.389  0.00  0.00    +0.000 OA
BRANCH  55  56
ATOM     56  C   UNL     1      -9.919  12.103  28.800  0.00  0.00    +0.000 C 
BRANCH  56  57
ATOM     57  C   UNL     1      -9.192  10.807  29.025  0.00  0.00    +0.000 C 
BRANCH  57  58
ATOM     58  O   UNL     1      -7.940  10.836  28.358  0.00  0.00    +0.000 OA
BRANCH  58  59
ATOM     59  C   UNL     1      -7.349   9.580  28.285  0.00  0.00    +0.000 C 
BRANCH  59  60
ATOM     60  C   UNL     1      -8.037   8.657  29.276  0.00  0.00    +0.000 C 
BRANCH  60  61
ATOM     61  O   UNL     1      -8.276   7.406  28.648  0.00  0.00    +0.000 OA
BRANCH  61  62
ATOM     62  C   UNL     1      -9.577   6.914  28.875  0.00  0.00    +0.000 C 
BRANCH  62  63
ATOM     63  C   UNL     1     -10.324   6.861  27.536  0.00  0.00    +0.000 C 
BRANCH  63  64
ATOM     64  O   UNL     1     -10.610   5.489  27.283  0.00  0.00    +0.000 OA
BRANCH  64  65
ATOM     65  C   UNL     1     -10.940   5.260  25.981  0.00  0.00    +0.000 C 
BRANCH  65  66
ATOM     66  C   UNL     1     -10.974   6.577  25.170  0.00  0.00    +0.000 C 
BRANCH  66  67
ATOM     67  O   UNL     1     -10.064   6.446  24.077  0.00  0.00    +0.000 OA
BRANCH  67  68
ATOM     68  C   UNL     1     -10.178   5.172  23.444  0.00  0.00    +0.000 C 
BRANCH  68  69
ATOM     69  C   UNL     1      -8.882   4.989  22.626  0.00  0.00    +0.000 C 
BRANCH  69  70
ATOM     70  O   UNL     1      -7.983   6.017  23.104  0.00  0.00    +0.000 OA
BRANCH  70  71
ATOM     71  C   UNL     1      -6.666   5.492  23.157  0.00  0.00    +0.000 C 
BRANCH  71  72
ATOM     72  C   UNL     1      -6.696   4.184  22.304  0.00  0.00    +0.000 C 
BRANCH  72  73
ATOM     73  C   UNL     1      -5.255   3.683  22.241  0.00  0.00    +0.000 C 
BRANCH  73  74
ATOM     74  C   UNL     1      -4.586   3.964  23.589  0.00  0.00    +0.000 C 
BRANCH  74  75
ATOM     75  C   UNL     1      -3.091   3.914  23.435  0.00  0.00    +0.000 C 
BRANCH  75  76
ATOM     76  C   UNL     1      -2.610   5.235  22.911  0.00  0.00    +0.000 C 
BRANCH  76  77
ATOM     77  C   UNL     1      -3.192   6.337  23.776  0.00  0.00    +0.000 C 
BRANCH  77  78
ATOM     78  C   UNL     1      -2.109   7.387  24.031  0.00  0.00    +0.000 C 
BRANCH  78  79
ATOM     79  C   UNL     1      -0.736   6.761  23.844  0.00  0.00    +0.000 C 
BRANCH  79  80
ATOM     80  C   UNL     1       0.121   6.943  25.066  0.00  0.00    +0.000 C 
BRANCH  80  82
ATOM     81  C   UNL     1       1.064   9.141  24.414  0.00  0.00    +0.000 C 
ATOM     82  C   UNL     1       1.379   7.689  24.707  0.00  0.00    +0.000 C 
ENDBRANCH  80  82
ENDBRANCH  79  80
ENDBRANCH  78  79
ENDBRANCH  77  78
ENDBRANCH  76  77
ENDBRANCH  75  76
ENDBRANCH  74  75
ENDBRANCH  73  74
ENDBRANCH  72  73
ENDBRANCH  71  72
ENDBRANCH  70  71
ENDBRANCH  69  70
ENDBRANCH  68  69
ENDBRANCH  67  68
ENDBRANCH  66  67
ENDBRANCH  65  66
ENDBRANCH  64  65
ENDBRANCH  63  64
ENDBRANCH  62  63
ENDBRANCH  61  62
ENDBRANCH  60  61
ENDBRANCH  59  60
ENDBRANCH  58  59
ENDBRANCH  57  58
ENDBRANCH  56  57
ENDBRANCH  55  56
ENDBRANCH  54  55
ENDBRANCH  53  54
ENDBRANCH  52  53
ENDBRANCH  51  52
ENDBRANCH  50  51
ENDBRANCH  49  50
ENDBRANCH  48  49
ENDBRANCH  47  48
ENDBRANCH  46  47
ENDBRANCH  45  46
ENDBRANCH  44  45
ENDBRANCH  43  44
ENDBRANCH   1  43
TORSDOF 79
BEGIN_RES LEU A  10
REMARK  2 active torsions:
REMARK  status: ('A' for Active; 'I' for Inactive)
REMARK    1  A    between atoms: CA   and  CB  
REMARK    2  A    between atoms: CB   and  CG  
ROOT
ATOM      1  CA  LEU A  10     -10.775  -4.871   5.898  1.00 25.14     0.177 C 
ENDROOT
BRANCH   1   2
ATOM      2  CB  LEU A  10     -12.191  -4.387   6.226  1.00 17.87     0.038 C 
BRANCH   2   3
ATOM      3  CG  LEU A  10     -12.482  -2.946   5.800  1.00 24.95    -0.020 C 
ATOM      4  CD2 LEU A  10     -13.735  -2.486   6.465  1.00 26.38     0.009 C 
ATOM      5  CD1 LEU A  10     -12.607  -2.841   4.290  1.00 28.12     0.009 C 
ENDBRANCH   2   3
ENDBRANCH   1   2
END_RES LEU A  10
BEGIN_RES CYS A  12
REMARK  2 active torsions:
REMARK  status: ('A' for Active; 'I' for Inactive)
REMARK    3  A    between atoms: CA   and  CB  
REMARK    4  A    between atoms: CB   and  SG  
ROOT
ATOM      6  CA  CYS A  12      -8.555   0.470   8.750  1.00 23.16     0.185 C 
ENDROOT
BRANCH   6   7
ATOM      7  CB  CYS A  12      -9.828   0.763   9.555  1.00 20.43     0.105 C 
BRANCH   7   8
ATOM      8  SG  CYS A  12     -11.248   1.391   8.606  1.00 24.64    -0.180 SA
ATOM      9  H04 CYS A  12     -12.008   0.364   8.206  1.00 24.64     0.101 HD
ENDBRANCH   7   8
ENDBRANCH   6   7
END_RES CYS A  12
BEGIN_RES GLN A  14
REMARK  3 active torsions:
REMARK  status: ('A' for Active; 'I' for Inactive)
REMARK    5  A    between atoms: CA   and  CB  
REMARK    6  A    between atoms: CB   and  CG  
REMARK    7  A    between atoms: CG   and  CD  
REMARK       I    between atoms: CD   and  NE2 
ROOT
ATOM     10  CA  GLN A  14      -4.645   5.402  11.377  1.00 10.43     0.177 C 
ENDROOT
BRANCH  10  11
ATOM     11  CB  GLN A  14      -5.541   5.549  12.608  1.00 14.45     0.044 C 
BRANCH  11  12
ATOM     12  CG  GLN A  14      -6.445   6.760  12.572  1.00 13.74     0.105 C 
BRANCH  12  13
ATOM     13  CD  GLN A  14      -5.737   8.022  13.004  1.00 16.29     0.215 C 
ATOM     14  NE2 GLN A  14      -5.644   8.227  14.300  1.00  8.57    -0.370 N 
ATOM     15  H06 GLN A  14      -5.180   9.054  14.647  1.00  8.57     0.159 HD
ATOM     16  H07 GLN A  14      -6.037   7.558  14.947  1.00  8.57     0.159 HD
ATOM     17  OE1 GLN A  14      -5.278   8.799  12.182  1.00 23.55    -0.274 OA
ENDBRANCH  12  13
ENDBRANCH  11  12
ENDBRANCH  10  11
END_RES GLN A  14
BEGIN_RES SER A  16
REMARK  2 active torsions:
REMARK  status: ('A' for Active; 'I' for Inactive)
REMARK    8  A    between atoms: CA   and  CB  
REMARK    9  A    between atoms: CB   and  OG  
ROOT
ATOM     18  CA  SER A  16      -1.305  10.019  14.282  1.00  2.34     0.200 C 
ENDROOT
BRANCH  18  19
ATOM     19  CB  SER A  16      -2.242   9.935  15.479  1.00  3.12     0.199 C 
BRANCH  19  20
ATOM     20  OG  SER A  16      -1.953   8.783  16.251  1.00  1.00    -0.398 OA
ATOM     21  H04 SER A  16      -2.441   8.820  17.077  1.00  1.00     0.209 HD
ENDBRANCH  19  20
ENDBRANCH  18  19
END_RES SER A  16
BEGIN_RES LEU A  32
REMARK  2 active torsions:
REMARK  status: ('A' for Active; 'I' for Inactive)
REMARK   10  A    between atoms: CA   and  CB  
REMARK   11  A    between atoms: CB   and  CG  
ROOT
ATOM     22  CA  LEU A  32     -10.272  -4.106   1.587  1.00 16.16     0.177 C 
ENDROOT
BRANCH  22  23
ATOM     23  CB  LEU A  32     -11.613  -3.858   0.880  1.00 12.35     0.038 C 
BRANCH  23  24
ATOM     24  CG  LEU A  32     -12.618  -4.999   1.138  1.00  9.77    -0.020 C 
ATOM     25  CD1 LEU A  32     -14.029  -4.523   0.885  1.00  4.35     0.009 C 
ATOM     26  CD2 LEU A  32     -12.318  -6.187   0.263  1.00 10.60     0.009 C 
ENDBRANCH  23  24
ENDBRANCH  22  23
END_RES LEU A  32
BEGIN_RES HIS A  38
REMARK  2 active torsions:
REMARK  status: ('A' for Active; 'I' for Inactive)
REMARK   12  A    between atoms: CA   and  CB  
REMARK   13  A    between atoms: CB   and  CG  
ROOT
ATOM     27  CA  HIS A  38     -10.959   4.941   1.621  1.00 16.94     0.182 C 
ENDROOT
BRANCH  27  28
ATOM     28  CB  HIS A  38     -11.810   4.840   2.881  1.00 15.47     0.095 C 
BRANCH  28  29
ATOM     29  CG  HIS A  38     -12.979   3.918   2.748  1.00 18.62     0.053 A 
ATOM     30  CD2 HIS A  38     -14.111   4.020   2.012  1.00 15.06     0.116 A 
ATOM     31  NE2 HIS A  38     -14.839   2.879   2.234  1.00 18.12    -0.359 N 
ATOM     32  CE1 HIS A  38     -14.180   2.104   3.075  1.00 14.78     0.207 A 
ATOM     33  H06 HIS A  38     -15.735   2.665   1.820  1.00 18.12     0.166 HD
ATOM     34  ND1 HIS A  38     -13.054   2.708   3.401  1.00 16.58    -0.247 NA
ENDBRANCH  28  29
ENDBRANCH  27  28
END_RES HIS A  38
BEGIN_RES TRP A  63
REMARK  2 active torsions:
REMARK  status: ('A' for Active; 'I' for Inactive)
REMARK   14  A    between atoms: CA   and  CB  
REMARK   15  A    between atoms: CB   and  CG  
ROOT
ATOM     35  CA  TRP A  63     -22.437   6.257   6.543  1.00 27.04     0.181 C 
ENDROOT
BRANCH  35  36
ATOM     36  CB  TRP A  63     -22.360   6.642   5.068  1.00 31.37     0.075 C 
BRANCH  36  37
ATOM     37  CG  TRP A  63     -20.953   6.806   4.533  1.00 34.37    -0.028 A 
ATOM     38  CD2 TRP A  63     -19.955   5.786   4.390  1.00 33.79    -0.002 A 
ATOM     39  CE3 TRP A  63     -19.900   4.427   4.709  1.00 32.99     0.014 A 
ATOM     40  CE2 TRP A  63     -18.829   6.386   3.785  1.00 35.84     0.042 A 
ATOM     41  CZ3 TRP A  63     -18.742   3.720   4.421  1.00 32.93     0.001 A 
ATOM     42  CH2 TRP A  63     -17.638   4.346   3.820  1.00 39.24     0.002 A 
ATOM     43  CZ2 TRP A  63     -17.663   5.675   3.494  1.00 37.99     0.030 A 
ATOM     44  NE1 TRP A  63     -19.132   7.703   3.576  1.00 37.98    -0.365 N 
ATOM     45  H06 TRP A  63     -18.519   8.388   3.156  1.00 37.98     0.165 HD
ATOM     46  CD1 TRP A  63     -20.406   7.944   4.030  1.00 38.16     0.096 A 
ENDBRANCH  36  37
ENDBRANCH  35  36
END_RES TRP A  63
BEGIN_RES LEU A  66
REMARK  2 active torsions:
REMARK  status: ('A' for Active; 'I' for Inactive)
REMARK   16  A    between atoms: CA   and  CB  
REMARK   17  A    between atoms: CB   and  CG  
ROOT
ATOM     47  CA  LEU A  66     -20.004   6.489  11.120  1.00 10.90     0.177 C 
ENDROOT
BRANCH  47  48
ATOM     48  CB  LEU A  66     -19.626   5.453  10.069  1.00 13.57     0.038 C 
BRANCH  48  49
ATOM     49  CG  LEU A  66     -20.212   4.050  10.227  1.00  8.73    -0.020 C 
ATOM     50  CD1 LEU A  66     -19.558   3.091   9.267  1.00 14.23     0.009 C 
ATOM     51  CD2 LEU A  66     -19.986   3.596  11.646  1.00  1.92     0.009 C 
ENDBRANCH  48  49
ENDBRANCH  47  48
END_RES LEU A  66
BEGIN_RES PHE A  70
REMARK  2 active torsions:
REMARK  status: ('A' for Active; 'I' for Inactive)
REMARK   18  A    between atoms: CA   and  CB  
REMARK   19  A    between atoms: CB   and  CG  
ROOT
ATOM     52  CA  PHE A  70     -14.974   9.434  13.165  1.00  8.78     0.180 C 
ENDROOT
BRANCH  52  53
ATOM     53  CB  PHE A  70     -14.707   9.132  11.681  1.00  6.33     0.073 C 
BRANCH  53  54
ATOM     54  CG  PHE A  70     -13.933   7.861  11.459  1.00  3.42    -0.056 A 
ATOM     55  CD1 PHE A  70     -13.592   7.445  10.181  1.00 13.88     0.007 A 
ATOM     56  CE1 PHE A  70     -12.910   6.233   9.977  1.00 12.71     0.001 A 
ATOM     57  CZ  PHE A  70     -12.566   5.430  11.065  1.00  4.21     0.000 A 
ATOM     58  CE2 PHE A  70     -12.898   5.835  12.344  1.00  2.83     0.001 A 
ATOM     59  CD2 PHE A  70     -13.580   7.049  12.537  1.00  1.00     0.007 A 
ENDBRANCH  53  54
ENDBRANCH  52  53
END_RES PHE A  70
BEGIN_RES TYR A  73
REMARK  3 active torsions:
REMARK  status: ('A' for Active; 'I' for Inactive)
REMARK   20  A    between atoms: CA   and  CB  
REMARK   21  A    between atoms: CB   and  CG  
REMARK   22  A    between atoms: CZ   and  OH  
ROOT
ATOM     60  CA  TYR A  73     -13.212  10.166  17.260  1.00 12.17     0.180 C 
ENDROOT
BRANCH  60  61
ATOM     61  CB  TYR A  73     -13.301   8.846  16.517  1.00 12.84     0.073 C 
BRANCH  61  62
ATOM     62  CG  TYR A  73     -13.714   7.712  17.389  1.00 15.89    -0.056 A 
ATOM     63  CD1 TYR A  73     -14.425   7.929  18.549  1.00 16.00     0.010 A 
ATOM     64  CE1 TYR A  73     -14.786   6.872  19.383  1.00 13.55     0.037 A 
ATOM     65  CZ  TYR A  73     -14.422   5.585  19.040  1.00 18.13     0.065 A 
ATOM     66  CE2 TYR A  73     -13.714   5.341  17.886  1.00 15.89     0.037 A 
ATOM     67  CD2 TYR A  73     -13.363   6.406  17.067  1.00 21.86     0.010 A 
BRANCH  65  68
ATOM     68  OH  TYR A  73     -14.772   4.527  19.843  1.00 12.12    -0.361 OA
ATOM     69  H08 TYR A  73     -15.641   4.686  20.221  1.00 12.12     0.217 HD
ENDBRANCH  65  68
ENDBRANCH  61  62
ENDBRANCH  60  61
END_RES TYR A  73
BEGIN_RES PHE A  77
REMARK  2 active torsions:
REMARK  status: ('A' for Active; 'I' for Inactive)
REMARK   23  A    between atoms: CA   and  CB  
REMARK   24  A    between atoms: CB   and  CG  
ROOT
ATOM     70  CA  PHE A  77      -8.400  10.581  20.110  1.00 17.17     0.180 C 
ENDROOT
BRANCH  70  71
ATOM     71  CB  PHE A  77      -8.228   9.750  18.851  1.00 10.44     0.073 C 
BRANCH  71  72
ATOM     72  CG  PHE A  77      -7.042   8.839  18.888  1.00  6.07    -0.056 A 
ATOM     73  CD2 PHE A  77      -6.047   8.947  17.943  1.00  9.61     0.007 A 
ATOM     74  CE2 PHE A  77      -4.940   8.106  17.970  1.00  1.00     0.001 A 
ATOM     75  CZ  PHE A  77      -4.828   7.144  18.960  1.00  1.92     0.000 A 
ATOM     76  CE1 PHE A  77      -5.813   7.024  19.913  1.00  9.25     0.001 A 
ATOM     77  CD1 PHE A  77      -6.919   7.873  19.873  1.00  9.63     0.007 A 
ENDBRANCH  71  72
ENDBRANCH  70  71
END_RES PHE A  77
BEGIN_RES LEU A  96
REMARK  2 active torsions:
REMARK  status: ('A' for Active; 'I' for Inactive)
REMARK   25  A    between atoms: CA   and  CB  
REMARK   26  A    between atoms: CB   and  CG  
ROOT
ATOM     78  CA  LEU A  96       0.717   6.481  17.359  1.00 16.08     0.177 C 
ENDROOT
BRANCH  78  79
ATOM     79  CB  LEU A  96      -0.370   7.101  18.230  1.00 18.83     0.038 C 
BRANCH  79  80
ATOM     80  CG  LEU A  96      -0.120   6.988  19.734  1.00 19.03    -0.020 C 
ATOM     81  CD1 LEU A  96      -1.264   7.646  20.469  1.00 28.17     0.009 C 
ATOM     82  CD2 LEU A  96      -0.056   5.537  20.150  1.00 22.01     0.009 C 
ENDBRANCH  79  80
ENDBRANCH  78  79
END_RES LEU A  96
BEGIN_RES VAL A  98
REMARK  1 active torsions:
REMARK  status: ('A' for Active; 'I' for Inactive)
REMARK   27  A    between atoms: CA   and  CB  
ROOT
ATOM     83  CA  VAL A  98      -3.928   2.082  14.897  1.00 19.83     0.180 C 
ENDROOT
BRANCH  83  84
ATOM     84  CB  VAL A  98      -5.203   2.807  15.281  1.00 17.87     0.009 C 
ATOM     85  CG2 VAL A  98      -4.909   4.258  15.558  1.00 29.90     0.012 C 
ATOM     86  CG1 VAL A  98      -5.818   2.142  16.494  1.00 14.79     0.012 C 
ENDBRANCH  83  84
END_RES VAL A  98
BEGIN_RES ASN A 112
REMARK  2 active torsions:
REMARK  status: ('A' for Active; 'I' for Inactive)
REMARK   28  A    between atoms: CA   and  CB  
REMARK   29  A    between atoms: CB   and  CG  
REMARK       I    between atoms: CG   and  ND2 
ROOT
ATOM     87  CA  ASN A 112     -11.790  -8.793  14.069  1.00 37.70     0.185 C 
ENDROOT
BRANCH  87  88
ATOM     88  CB  ASN A 112     -12.992  -7.945  14.465  1.00 26.24     0.137 C 
BRANCH  88  89
ATOM     89  CG  ASN A 112     -13.804  -8.555  15.585  1.00 21.77     0.217 C 
ATOM     90  ND2 ASN A 112     -14.948  -9.141  15.231  1.00  9.31    -0.370 N 
ATOM     91  H04 ASN A 112     -15.536  -9.566  15.933  1.00  9.31     0.159 HD
ATOM     92  H05 ASN A 112     -15.225  -9.161  14.259  1.00  9.31     0.159 HD
ATOM     93  OD1 ASN A 112     -13.415  -8.498  16.758  1.00 21.61    -0.274 OA
ENDBRANCH  88  89
ENDBRANCH  87  88
END_RES ASN A 112
BEGIN_RES PHE A 114
REMARK  2 active torsions:
REMARK  status: ('A' for Active; 'I' for Inactive)
REMARK   30  A    between atoms: CA   and  CB  
REMARK   31  A    between atoms: CB   and  CG  
ROOT
ATOM     94  CA  PHE A 114      -7.754  -3.619  17.012  1.00 26.06     0.180 C 
ENDROOT
BRANCH  94  95
ATOM     95  CB  PHE A 114      -8.890  -3.080  17.867  1.00 19.95     0.073 C 
BRANCH  95  96
ATOM     96  CG  PHE A 114      -9.213  -1.648  17.588  1.00 17.65    -0.056 A 
ATOM     97  CD1 PHE A 114      -8.200  -0.703  17.451  1.00 13.01     0.007 A 
ATOM     98  CE1 PHE A 114      -8.500   0.634  17.221  1.00  6.74     0.001 A 
ATOM     99  CZ  PHE A 114      -9.827   1.044  17.122  1.00  6.27     0.000 A 
ATOM    100  CE2 PHE A 114     -10.843   0.112  17.256  1.00 17.36     0.001 A 
ATOM    101  CD2 PHE A 114     -10.534  -1.233  17.489  1.00 18.39     0.007 A 
ENDBRANCH  95  96
ENDBRANCH  94  95
END_RES PHE A 114
BEGIN_RES VAL A 116
REMARK  1 active torsions:
REMARK  status: ('A' for Active; 'I' for Inactive)
REMARK   32  A    between atoms: CA   and  CB  
ROOT
ATOM    102  CA  VAL A 116      -2.467   0.283  18.565  1.00 13.48     0.180 C 
ENDROOT
BRANCH 102 103
ATOM    103  CB  VAL A 116      -3.101   1.238  19.599  1.00 20.86     0.009 C 
ATOM    104  CG1 VAL A 116      -3.060   2.672  19.064  1.00 25.01     0.012 C 
ATOM    105  CG2 VAL A 116      -4.510   0.809  19.935  1.00 25.34     0.012 C 
ENDBRANCH 102 103
END_RES VAL A 116
BEGIN_RES ILE A 123
REMARK  2 active torsions:
REMARK  status: ('A' for Active; 'I' for Inactive)
REMARK   33  A    between atoms: CA   and  CB  
REMARK   34  A    between atoms: CB   and  CG1 
ROOT
ATOM    106  CA  ILE A 123       1.557  -1.626  23.222  1.00 15.07     0.180 C 
ENDROOT
BRANCH 106 107
ATOM    107  CB  ILE A 123       1.697  -0.112  23.461  1.00 14.41     0.013 C 
ATOM    108  CG2 ILE A 123       3.113   0.213  23.905  1.00 18.35     0.012 C 
BRANCH 107 109
ATOM    109  CG1 ILE A 123       1.353   0.659  22.189  1.00 15.23     0.002 C 
ATOM    110  CD1 ILE A 123       0.262   1.686  22.380  1.00 14.67     0.005 C 
ENDBRANCH 107 109
ENDBRANCH 106 107
END_RES ILE A 123
BEGIN_RES LEU A 124
REMARK  2 active torsions:
REMARK  status: ('A' for Active; 'I' for Inactive)
REMARK   35  A    between atoms: CA   and  CB  
REMARK   36  A    between atoms: CB   and  CG  
ROOT
ATOM    111  CA  LEU A 124      -2.057  -2.686  23.524  1.00 11.86     0.177 C 
ENDROOT
BRANCH 111 112
ATOM    112  CB  LEU A 124      -2.698  -1.652  24.429  1.00 14.60     0.038 C 
BRANCH 112 113
ATOM    113  CG  LEU A 124      -2.609  -0.249  23.847  1.00 16.19    -0.020 C 
ATOM    114  CD1 LEU A 124      -4.022   0.219  23.448  1.00 22.07     0.009 C 
ATOM    115  CD2 LEU A 124      -1.975   0.675  24.856  1.00  9.12     0.009 C 
ENDBRANCH 112 113
ENDBRANCH 111 112
END_RES LEU A 124
BEGIN_RES PHE A 126
REMARK  2 active torsions:
REMARK  status: ('A' for Active; 'I' for Inactive)
REMARK   37  A    between atoms: CA   and  CB  
REMARK   38  A    between atoms: CB   and  CG  
ROOT
ATOM    116  CA  PHE A 126      -8.784  -4.792  22.233  1.00 23.15     0.180 C 
ENDROOT
BRANCH 116 117
ATOM    117  CB  PHE A 126      -9.823  -4.011  21.461  1.00 20.65     0.073 C 
BRANCH 117 118
ATOM    118  CG  PHE A 126     -10.956  -3.555  22.294  1.00 23.65    -0.056 A 
ATOM    119  CD2 PHE A 126     -10.778  -2.568  23.248  1.00 36.63     0.007 A 
ATOM    120  CE2 PHE A 126     -11.854  -2.135  24.036  1.00 36.27     0.001 A 
ATOM    121  CZ  PHE A 126     -13.109  -2.698  23.862  1.00 18.06     0.000 A 
ATOM    122  CE1 PHE A 126     -13.291  -3.681  22.909  1.00  5.50     0.001 A 
ATOM    123  CD1 PHE A 126     -12.216  -4.104  22.128  1.00 15.29     0.007 A 
ENDBRANCH 117 118
ENDBRANCH 116 117
END_RES PHE A 126
BEGIN_RES TRP A 131
REMARK  2 active torsions:
REMARK  status: ('A' for Active; 'I' for Inactive)
REMARK   39  A    between atoms: CA   and  CB  
REMARK   40  A    between atoms: CB   and  CG  
ROOT
ATOM    124  CA  TRP A 131      -8.096  -3.335  26.542  1.00 14.52     0.181 C 
ENDROOT
BRANCH 124 125
ATOM    125  CB  TRP A 131      -7.651  -1.877  26.607  1.00 13.06     0.075 C 
BRANCH 125 126
ATOM    126  CG  TRP A 131      -8.047  -1.052  25.402  1.00 16.97    -0.028 A 
ATOM    127  CD2 TRP A 131      -9.136  -0.129  25.323  1.00 11.34    -0.002 A 
ATOM    128  CE2 TRP A 131      -9.133   0.418  24.024  1.00  5.87     0.042 A 
ATOM    129  CE3 TRP A 131     -10.116   0.289  26.230  1.00  3.80     0.014 A 
ATOM    130  CZ2 TRP A 131     -10.072   1.363  23.610  1.00  1.35     0.030 A 
ATOM    131  NE1 TRP A 131      -8.091  -0.149  23.342  1.00 13.90    -0.365 N 
ATOM    132  CH2 TRP A 131     -11.022   1.756  24.520  1.00  1.00     0.002 A 
ATOM    133  CZ3 TRP A 131     -11.050   1.225  25.823  1.00  1.00     0.001 A 
ATOM    134  CD1 TRP A 131      -7.442  -1.030  24.175  1.00 17.22     0.096 A 
ATOM    135  H07 TRP A 131      -7.839   0.048  22.384  1.00 13.90     0.165 HD
ENDBRANCH 125 126
ENDBRANCH 124 125
END_RES TRP A 131
BEGIN_RES LEU A 148
REMARK  2 active torsions:
REMARK  status: ('A' for Active; 'I' for Inactive)
REMARK   41  A    between atoms: CA   and  CB  
REMARK   42  A    between atoms: CB   and  CG  
ROOT
ATOM    136  CA  LEU A 148      -9.018   3.259  29.295  1.00 16.99     0.177 C 
ENDROOT
BRANCH 136 137
ATOM    137  CB  LEU A 148      -8.166   2.574  28.236  1.00  6.39     0.038 C 
BRANCH 137 138
ATOM    138  CG  LEU A 148      -7.299   3.378  27.289  1.00  1.00    -0.020 C 
ATOM    139  CD2 LEU A 148      -7.906   3.398  25.916  1.00  1.00     0.009 C 
ATOM    140  CD1 LEU A 148      -5.920   2.746  27.254  1.00  2.71     0.009 C 
ENDBRANCH 137 138
ENDBRANCH 136 137
END_RES LEU A 148
BEGIN_RES THR A 154
REMARK  2 active torsions:
REMARK  status: ('A' for Active; 'I' for Inactive)
REMARK   43  A    between atoms: CA   and  CB  
REMARK   44  A    between atoms: CB   and  OG1 
ROOT
ATOM    141  CA  THR A 154     -15.990   3.959  24.426  1.00 20.45     0.205 C 
ENDROOT
BRANCH 141 142
ATOM    142  CB  THR A 154     -14.777   4.829  24.694  1.00 16.79     0.146 C 
ATOM    143  CG2 THR A 154     -13.694   4.548  23.670  1.00 20.24     0.042 C 
BRANCH 142 144
ATOM    144  OG1 THR A 154     -15.162   6.206  24.595  1.00 18.84    -0.393 OA
ATOM    145  H06 THR A 154     -14.491   6.757  25.004  1.00 18.84     0.210 HD
ENDBRANCH 142 144
ENDBRANCH 141 142
END_RES THR A 154
BEGIN_RES VAL A 158
REMARK  1 active torsions:
REMARK  status: ('A' for Active; 'I' for Inactive)
REMARK   45  A    between atoms: CA   and  CB  
ROOT
ATOM    146  CA  VAL A 158     -15.487  -0.189  19.892  1.00 15.49     0.180 C 
ENDROOT
BRANCH 146 147
ATOM    147  CB  VAL A 158     -14.291  -0.273  20.822  1.00  6.52     0.009 C 
ATOM    148  CG1 VAL A 158     -13.224  -1.176  20.248  1.00  1.00     0.012 C 
ATOM    149  CG2 VAL A 158     -13.754   1.108  21.040  1.00  5.99     0.012 C 
ENDBRANCH 146 147
END_RES VAL A 158
BEGIN_RES LEU A 161
REMARK  2 active torsions:
REMARK  status: ('A' for Active; 'I' for Inactive)
REMARK   46  A    between atoms: CA   and  CB  
REMARK   47  A    between atoms: CB   and  CG  
ROOT
ATOM    150  CA  LEU A 161     -18.031  -1.858  15.935  1.00 13.31     0.177 C 
ENDROOT
BRANCH 150 151
ATOM    151  CB  LEU A 161     -17.046  -0.706  16.001  1.00 14.13     0.038 C 
BRANCH 151 152
ATOM    152  CG  LEU A 161     -17.555   0.646  15.517  1.00 19.39    -0.020 C 
ATOM    153  CD2 LEU A 161     -16.949   1.757  16.339  1.00 27.75     0.009 C 
ATOM    154  CD1 LEU A 161     -19.055   0.673  15.639  1.00 18.59     0.009 C 
ENDBRANCH 151 152
ENDBRANCH 150 151
END_RES LEU A 161
BEGIN_RES GLN A 168
REMARK  3 active torsions:
REMARK  status: ('A' for Active; 'I' for Inactive)
REMARK   48  A    between atoms: CA   and  CB  
REMARK   49  A    between atoms: CB   and  CG  
REMARK   50  A    between atoms: CG   and  CD  
REMARK       I    between atoms: CD   and  NE2 
ROOT
ATOM    155  CA  GLN A 168     -22.035  -6.020   8.155  1.00 30.94     0.177 C 
ENDROOT
BRANCH 155 156
ATOM    156  CB  GLN A 168     -23.054  -5.218   8.946  1.00 41.76     0.044 C 
BRANCH 156 157
ATOM    157  CG  GLN A 168     -24.465  -5.730   8.846  1.00 61.20     0.105 C 
BRANCH 157 158
ATOM    158  CD  GLN A 168     -25.332  -4.835   7.982  1.00 75.49     0.215 C 
ATOM    159  NE2 GLN A 168     -26.618  -4.748   8.327  1.00 85.00    -0.370 N 
ATOM    160  H06 GLN A 168     -27.247  -4.170   7.789  1.00 85.00     0.159 HD
ATOM    161  H07 GLN A 168     -26.962  -5.262   9.126  1.00 85.00     0.159 HD
ATOM    162  OE1 GLN A 168     -24.857  -4.231   7.010  1.00 73.64    -0.274 OA
ENDBRANCH 157 158
ENDBRANCH 156 157
ENDBRANCH 155 156
END_RES GLN A 168
ENDMDL
MODEL 4
REMARK VINA RESULT:      -6.6      1.241      2.072
REMARK  Name = human_CD1d_brij35_pred.rank_0
REMARK  79 active torsions:
REMARK  status: ('A' for Active; 'I' for Inactive)
REMARK    1  A    between atoms: O_2  and  C_23
REMARK    2  A    between atoms: O_2  and  C_25
REMARK    3  A    between atoms: C_3  and  C_5
REMARK    4  A    between atoms: O_4  and  C_27
REMARK    5  A    between atoms: O_4  and  C_29
REMARK    6  A    between atoms: C_5  and  C_7
REMARK    7  A    between atoms: O_6  and  C_31
REMARK    8  A    between atoms: O_6  and  C_33
REMARK    9  A    between atoms: C_7  and  C_9
REMARK   10  A    between atoms: O_8  and  C_35
REMARK   11  A    between atoms: O_8  and  C_37
REMARK   12  A    between atoms: C_9  and  C_11
REMARK   13  A    between atoms: O_10  and  C_39
REMARK   14  A    between atoms: O_10  and  C_41
REMARK   15  A    between atoms: C_11  and  C_13
REMARK   16  A    between atoms: O_12  and  C_43
REMARK   17  A    between atoms: O_12  and  C_45
REMARK   18  A    between atoms: C_13  and  C_15
REMARK   19  A    between atoms: O_14  and  C_47
REMARK   20  A    between atoms: O_14  and  C_49
REMARK   21  A    between atoms: C_15  and  C_17
REMARK   22  A    between atoms: O_16  and  C_50
REMARK   23  A    between atoms: O_16  and  C_51
REMARK   24  A    between atoms: C_17  and  C_19
REMARK   25  A    between atoms: O_18  and  C_52
REMARK   26  A    between atoms: O_18  and  C_53
REMARK   27  A    between atoms: C_19  and  C_21
REMARK   28  A    between atoms: O_20  and  C_54
REMARK   29  A    between atoms: O_20  and  C_55
REMARK   30  A    between atoms: C_21  and  C_23
REMARK   31  A    between atoms: O_22  and  C_56
REMARK   32  A    between atoms: O_22  and  C_57
REMARK   33  A    between atoms: O_24  and  C_58
REMARK   34  A    between atoms: O_24  and  C_59
REMARK   35  A    between atoms: C_25  and  C_27
REMARK   36  A    between atoms: O_26  and  C_60
REMARK   37  A    between atoms: O_26  and  C_61
REMARK   38  A    between atoms: O_28  and  C_62
REMARK   39  A    between atoms: O_28  and  C_63
REMARK   40  A    between atoms: C_29  and  C_31
REMARK   41  A    between atoms: O_30  and  C_64
REMARK   42  A    between atoms: O_30  and  C_65
REMARK   43  A    between atoms: O_32  and  C_66
REMARK   44  A    between atoms: O_32  and  C_67
REMARK   45  A    between atoms: C_33  and  C_35
REMARK   46  A    between atoms: O_34  and  C_68
REMARK   47  A    between atoms: O_34  and  C_69
REMARK   48  A    between atoms: O_36  and  C_70
REMARK   49  A    between atoms: O_36  and  C_71
REMARK   50  A    between atoms: C_37  and  C_39
REMARK   51  A    between atoms: O_38  and  C_72
REMARK   52  A    between atoms: O_38  and  C_73
REMARK   53  A    between atoms: O_40  and  C_74
REMARK   54  A    between atoms: O_40  and  C_75
REMARK   55  A    between atoms: C_41  and  C_43
REMARK   56  A    between atoms: O_42  and  C_76
REMARK   57  A    between atoms: O_42  and  C_77
REMARK   58  A    between atoms: O_44  and  C_78
REMARK   59  A    between atoms: O_44  and  C_79
REMARK   60  A    between atoms: C_45  and  C_47
REMARK   61  A    between atoms: O_46  and  C_80
REMARK   62  A    between atoms: O_46  and  C_81
REMARK   63  A    between atoms: C_49  and  C_50
REMARK   64  A    between atoms: C_51  and  C_52
REMARK   65  A    between atoms: C_53  and  C_54
REMARK   66  A    between atoms: C_55  and  C_56
REMARK   67  A    between atoms: C_57  and  C_58
REMARK   68  A    between atoms: C_59  and  C_60
REMARK   69  A    between atoms: C_61  and  C_62
REMARK   70  A    between atoms: C_63  and  C_64
REMARK   71  A    between atoms: C_65  and  C_66
REMARK   72  A    between atoms: C_67  and  C_68
REMARK   73  A    between atoms: C_69  and  C_70
REMARK   74  A    between atoms: C_71  and  C_72
REMARK   75  A    between atoms: C_73  and  C_74
REMARK   76  A    between atoms: C_75  and  C_76
REMARK   77  A    between atoms: C_77  and  C_78
REMARK   78  A    between atoms: C_79  and  C_80
REMARK   79  A    between atoms: C_81  and  C_82
REMARK                            x       y       z     vdW  Elec       q    Type
REMARK                         _______ _______ _______ _____ _____    ______ ____
ROOT
ATOM      1  C   UNL     1     -10.594   5.968  18.376  0.00  0.00    +0.000 C 
ENDROOT
BRANCH   1   2
ATOM      2  C   UNL     1     -10.144   7.014  17.369  0.00  0.00    +0.000 C 
BRANCH   2   3
ATOM      3  O   UNL     1     -10.404   6.582  16.021  0.00  0.00    +0.000 OA
BRANCH   3   4
ATOM      4  C   UNL     1      -9.174   6.195  15.388  0.00  0.00    +0.000 C 
BRANCH   4   5
ATOM      5  C   UNL     1      -9.397   5.136  14.325  0.00  0.00    +0.000 C 
BRANCH   5   6
ATOM      6  O   UNL     1      -8.499   4.039  14.597  0.00  0.00    +0.000 OA
BRANCH   6   7
ATOM      7  C   UNL     1      -8.499   3.035  13.586  0.00  0.00    +0.000 C 
BRANCH   7   8
ATOM      8  C   UNL     1      -9.377   3.476  12.406  0.00  0.00    +0.000 C 
BRANCH   8   9
ATOM      9  O   UNL     1      -8.559   3.765  11.256  0.00  0.00    +0.000 OA
BRANCH   9  10
ATOM     10  C   UNL     1      -9.030   4.865  10.500  0.00  0.00    +0.000 C 
BRANCH  10  11
ATOM     11  C   UNL     1      -9.403   4.432   9.056  0.00  0.00    +0.000 C 
BRANCH  11  12
ATOM     12  O   UNL     1      -9.111   5.487   8.150  0.00  0.00    +0.000 OA
BRANCH  12  13
ATOM     13  C   UNL     1     -10.195   5.936   7.346  0.00  0.00    +0.000 C 
BRANCH  13  14
ATOM     14  C   UNL     1     -10.901   4.694   6.734  0.00  0.00    +0.000 C 
BRANCH  14  15
ATOM     15  O   UNL     1     -12.277   4.961   6.405  0.00  0.00    +0.000 OA
BRANCH  15  16
ATOM     16  C   UNL     1     -13.221   4.051   6.905  0.00  0.00    +0.000 C 
BRANCH  16  17
ATOM     17  C   UNL     1     -14.524   4.275   6.168  0.00  0.00    +0.000 C 
BRANCH  17  18
ATOM     18  O   UNL     1     -15.285   5.348   6.742  0.00  0.00    +0.000 OA
BRANCH  18  19
ATOM     19  C   UNL     1     -16.257   4.934   7.655  0.00  0.00    +0.000 C 
BRANCH  19  20
ATOM     20  C   UNL     1     -16.411   5.956   8.769  0.00  0.00    +0.000 C 
BRANCH  20  21
ATOM     21  O   UNL     1     -16.234   5.307  10.019  0.00  0.00    +0.000 OA
BRANCH  21  22
ATOM     22  C   UNL     1     -15.788   3.996   9.841  0.00  0.00    +0.000 C 
BRANCH  22  23
ATOM     23  C   UNL     1     -15.743   3.302  11.208  0.00  0.00    +0.000 C 
BRANCH  23  24
ATOM     24  O   UNL     1     -16.149   4.206  12.222  0.00  0.00    +0.000 OA
BRANCH  24  25
ATOM     25  C   UNL     1     -15.796   3.750  13.527  0.00  0.00    +0.000 C 
BRANCH  25  26
ATOM     26  C   UNL     1     -14.661   2.712  13.371  0.00  0.00    +0.000 C 
BRANCH  26  27
ATOM     27  O   UNL     1     -13.953   2.616  14.608  0.00  0.00    +0.000 OA
BRANCH  27  28
ATOM     28  C   UNL     1     -12.586   2.931  14.500  0.00  0.00    +0.000 C 
BRANCH  28  29
ATOM     29  C   UNL     1     -11.848   2.756  15.800  0.00  0.00    +0.000 C 
BRANCH  29  30
ATOM     30  O   UNL     1     -11.572   1.404  16.010  0.00  0.00    +0.000 OA
BRANCH  30  31
ATOM     31  C   UNL     1     -12.188   0.881  17.172  0.00  0.00    +0.000 C 
BRANCH  31  32
ATOM     32  C   UNL     1     -13.250  -0.113  16.757  0.00  0.00    +0.000 C 
BRANCH  32  33
ATOM     33  O   UNL     1     -13.035  -0.459  15.413  0.00  0.00    +0.000 OA
BRANCH  33  34
ATOM     34  C   UNL     1     -14.111  -1.126  14.842  0.00  0.00    +0.000 C 
BRANCH  34  35
ATOM     35  C   UNL     1     -14.084  -0.916  13.341  0.00  0.00    +0.000 C 
BRANCH  35  36
ATOM     36  O   UNL     1     -12.795  -0.459  12.957  0.00  0.00    +0.000 OA
BRANCH  36  37
ATOM     37  C   UNL     1     -12.470  -0.865  11.647  0.00  0.00    +0.000 C 
BRANCH  37  38
ATOM     38  C   UNL     1     -13.753  -1.332  10.938  0.00  0.00    +0.000 C 
BRANCH  38  39
ATOM     39  O   UNL     1     -13.691  -0.828   9.628  0.00  0.00    +0.000 OA
BRANCH  39  40
ATOM     40  C   UNL     1     -14.959  -0.232   9.233  0.00  0.00    +0.000 C 
BRANCH  40  42
ATOM     41  O   UNL     1     -17.300  -0.212   9.782  0.00  0.00    +0.000 OA
ATOM     42  C   UNL     1     -16.035  -0.718  10.188  0.00  0.00    +0.000 C 
ENDBRANCH  40  42
ENDBRANCH  39  40
ENDBRANCH  38  39
ENDBRANCH  37  38
ENDBRANCH  36  37
ENDBRANCH  35  36
ENDBRANCH  34  35
ENDBRANCH  33  34
ENDBRANCH  32  33
ENDBRANCH  31  32
ENDBRANCH  30  31
ENDBRANCH  29  30
ENDBRANCH  28  29
ENDBRANCH  27  28
ENDBRANCH  26  27
ENDBRANCH  25  26
ENDBRANCH  24  25
ENDBRANCH  23  24
ENDBRANCH  22  23
ENDBRANCH  21  22
ENDBRANCH  20  21
ENDBRANCH  19  20
ENDBRANCH  18  19
ENDBRANCH  17  18
ENDBRANCH  16  17
ENDBRANCH  15  16
ENDBRANCH  14  15
ENDBRANCH  13  14
ENDBRANCH  12  13
ENDBRANCH  11  12
ENDBRANCH  10  11
ENDBRANCH   9  10
ENDBRANCH   8   9
ENDBRANCH   7   8
ENDBRANCH   6   7
ENDBRANCH   5   6
ENDBRANCH   4   5
ENDBRANCH   3   4
ENDBRANCH   2   3
ENDBRANCH   1   2
BRANCH   1  43
ATOM     43  O   UNL     1     -10.076   6.255  19.667  0.00  0.00    +0.000 OA
BRANCH  43  44
ATOM     44  C   UNL     1     -11.060   6.625  20.571  0.00  0.00    +0.000 C 
BRANCH  44  45
ATOM     45  C   UNL     1     -11.035   8.145  20.758  0.00  0.00    +0.000 C 
BRANCH  45  46
ATOM     46  O   UNL     1     -11.312   8.435  22.124  0.00  0.00    +0.000 OA
BRANCH  46  47
ATOM     47  C   UNL     1     -12.607   8.146  22.552  0.00  0.00    +0.000 C 
BRANCH  47  48
ATOM     48  C   UNL     1     -12.752   8.490  24.043  0.00  0.00    +0.000 C 
BRANCH  48  49
ATOM     49  O   UNL     1     -14.057   8.876  24.288  0.00  0.00    +0.000 OA
BRANCH  49  50
ATOM     50  C   UNL     1     -14.137   9.849  25.321  0.00  0.00    +0.000 C 
BRANCH  50  51
ATOM     51  C   UNL     1     -13.106  10.940  25.054  0.00  0.00    +0.000 C 
BRANCH  51  52
ATOM     52  O   UNL     1     -12.857  11.662  26.277  0.00  0.00    +0.000 OA
BRANCH  52  53
ATOM     53  C   UNL     1     -12.361  10.782  27.290  0.00  0.00    +0.000 C 
BRANCH  53  54
ATOM     54  C   UNL     1     -11.549  11.585  28.318  0.00  0.00    +0.000 C 
BRANCH  54  55
ATOM     55  O   UNL     1     -11.761  12.983  28.081  0.00  0.00    +0.000 OA
BRANCH  55  56
ATOM     56  C   UNL     1     -10.547  13.709  28.185  0.00  0.00    +0.000 C 
BRANCH  56  57
ATOM     57  C   UNL     1      -9.594  12.861  28.979  0.00  0.00    +0.000 C 
BRANCH  57  58
ATOM     58  O   UNL     1      -8.285  12.979  28.445  0.00  0.00    +0.000 OA
BRANCH  58  59
ATOM     59  C   UNL     1      -7.557  11.800  28.558  0.00  0.00    +0.000 C 
BRANCH  59  60
ATOM     60  C   UNL     1      -7.894  11.142  29.886  0.00  0.00    +0.000 C 
BRANCH  60  61
ATOM     61  O   UNL     1      -8.112   9.756  29.668  0.00  0.00    +0.000 OA
BRANCH  61  62
ATOM     62  C   UNL     1      -9.320   9.292  30.226  0.00  0.00    +0.000 C 
BRANCH  62  63
ATOM     63  C   UNL     1      -9.734   8.004  29.502  0.00  0.00    +0.000 C 
BRANCH  63  64
ATOM     64  O   UNL     1      -8.531   7.374  29.073  0.00  0.00    +0.000 OA
BRANCH  64  65
ATOM     65  C   UNL     1      -8.674   6.754  27.868  0.00  0.00    +0.000 C 
BRANCH  65  66
ATOM     66  C   UNL     1     -10.157   6.431  27.574  0.00  0.00    +0.000 C 
BRANCH  66  67
ATOM     67  O   UNL     1     -10.409   6.723  26.199  0.00  0.00    +0.000 OA
BRANCH  67  68
ATOM     68  C   UNL     1     -10.850   5.568  25.486  0.00  0.00    +0.000 C 
BRANCH  68  69
ATOM     69  C   UNL     1     -10.235   5.683  24.074  0.00  0.00    +0.000 C 
BRANCH  69  70
ATOM     70  O   UNL     1      -9.049   6.494  24.242  0.00  0.00    +0.000 OA
BRANCH  70  71
ATOM     71  C   UNL     1      -8.160   6.243  23.165  0.00  0.00    +0.000 C 
BRANCH  71  72
ATOM     72  C   UNL     1      -8.564   4.844  22.599  0.00  0.00    +0.000 C 
BRANCH  72  73
ATOM     73  C   UNL     1      -7.258   4.120  22.282  0.00  0.00    +0.000 C 
BRANCH  73  74
ATOM     74  C   UNL     1      -6.121   4.822  23.028  0.00  0.00    +0.000 C 
BRANCH  74  75
ATOM     75  C   UNL     1      -4.977   3.867  23.227  0.00  0.00    +0.000 C 
BRANCH  75  76
ATOM     76  C   UNL     1      -4.209   4.273  24.450  0.00  0.00    +0.000 C 
BRANCH  76  77
ATOM     77  C   UNL     1      -2.811   4.680  24.029  0.00  0.00    +0.000 C 
BRANCH  77  78
ATOM     78  C   UNL     1      -2.758   6.204  23.904  0.00  0.00    +0.000 C 
BRANCH  78  79
ATOM     79  C   UNL     1      -1.597   6.744  24.724  0.00  0.00    +0.000 C 
BRANCH  79  80
ATOM     80  C   UNL     1      -0.419   7.081  23.852  0.00  0.00    +0.000 C 
BRANCH  80  82
ATOM     81  C   UNL     1       0.761   4.927  24.185  0.00  0.00    +0.000 C 
ATOM     82  C   UNL     1       0.826   6.425  24.390  0.00  0.00    +0.000 C 
ENDBRANCH  80  82
ENDBRANCH  79  80
ENDBRANCH  78  79
ENDBRANCH  77  78
ENDBRANCH  76  77
ENDBRANCH  75  76
ENDBRANCH  74  75
ENDBRANCH  73  74
ENDBRANCH  72  73
ENDBRANCH  71  72
ENDBRANCH  70  71
ENDBRANCH  69  70
ENDBRANCH  68  69
ENDBRANCH  67  68
ENDBRANCH  66  67
ENDBRANCH  65  66
ENDBRANCH  64  65
ENDBRANCH  63  64
ENDBRANCH  62  63
ENDBRANCH  61  62
ENDBRANCH  60  61
ENDBRANCH  59  60
ENDBRANCH  58  59
ENDBRANCH  57  58
ENDBRANCH  56  57
ENDBRANCH  55  56
ENDBRANCH  54  55
ENDBRANCH  53  54
ENDBRANCH  52  53
ENDBRANCH  51  52
ENDBRANCH  50  51
ENDBRANCH  49  50
ENDBRANCH  48  49
ENDBRANCH  47  48
ENDBRANCH  46  47
ENDBRANCH  45  46
ENDBRANCH  44  45
ENDBRANCH  43  44
ENDBRANCH   1  43
TORSDOF 79
BEGIN_RES LEU A  10
REMARK  2 active torsions:
REMARK  status: ('A' for Active; 'I' for Inactive)
REMARK    1  A    between atoms: CA   and  CB  
REMARK    2  A    between atoms: CB   and  CG  
ROOT
ATOM      1  CA  LEU A  10     -10.775  -4.871   5.898  1.00 25.14     0.177 C 
ENDROOT
BRANCH   1   2
ATOM      2  CB  LEU A  10     -12.191  -4.387   6.226  1.00 17.87     0.038 C 
BRANCH   2   3
ATOM      3  CG  LEU A  10     -12.540  -3.014   5.648  1.00 24.95    -0.020 C 
ATOM      4  CD2 LEU A  10     -12.175  -1.962   6.640  1.00 26.38     0.009 C 
ATOM      5  CD1 LEU A  10     -14.016  -2.931   5.299  1.00 28.12     0.009 C 
ENDBRANCH   2   3
ENDBRANCH   1   2
END_RES LEU A  10
BEGIN_RES CYS A  12
REMARK  2 active torsions:
REMARK  status: ('A' for Active; 'I' for Inactive)
REMARK    3  A    between atoms: CA   and  CB  
REMARK    4  A    between atoms: CB   and  SG  
ROOT
ATOM      6  CA  CYS A  12      -8.555   0.470   8.750  1.00 23.16     0.185 C 
ENDROOT
BRANCH   6   7
ATOM      7  CB  CYS A  12      -9.828   0.763   9.555  1.00 20.43     0.105 C 
BRANCH   7   8
ATOM      8  SG  CYS A  12     -11.277   1.299   8.594  1.00 24.64    -0.180 SA
ATOM      9  H04 CYS A  12     -11.073   1.039   7.296  1.00 24.64     0.101 HD
ENDBRANCH   7   8
ENDBRANCH   6   7
END_RES CYS A  12
BEGIN_RES GLN A  14
REMARK  3 active torsions:
REMARK  status: ('A' for Active; 'I' for Inactive)
REMARK    5  A    between atoms: CA   and  CB  
REMARK    6  A    between atoms: CB   and  CG  
REMARK    7  A    between atoms: CG   and  CD  
REMARK       I    between atoms: CD   and  NE2 
ROOT
ATOM     10  CA  GLN A  14      -4.645   5.402  11.377  1.00 10.43     0.177 C 
ENDROOT
BRANCH  10  11
ATOM     11  CB  GLN A  14      -5.541   5.549  12.608  1.00 14.45     0.044 C 
BRANCH  11  12
ATOM     12  CG  GLN A  14      -6.518   6.699  12.526  1.00 13.74     0.105 C 
BRANCH  12  13
ATOM     13  CD  GLN A  14      -5.907   8.008  12.969  1.00 16.29     0.215 C 
ATOM     14  NE2 GLN A  14      -6.017   8.303  14.246  1.00  8.57    -0.370 N 
ATOM     15  H06 GLN A  14      -5.626   9.165  14.600  1.00  8.57     0.159 HD
ATOM     16  H07 GLN A  14      -6.491   7.669  14.872  1.00  8.57     0.159 HD
ATOM     17  OE1 GLN A  14      -5.342   8.740  12.172  1.00 23.55    -0.274 OA
ENDBRANCH  12  13
ENDBRANCH  11  12
ENDBRANCH  10  11
END_RES GLN A  14
BEGIN_RES SER A  16
REMARK  2 active torsions:
REMARK  status: ('A' for Active; 'I' for Inactive)
REMARK    8  A    between atoms: CA   and  CB  
REMARK    9  A    between atoms: CB   and  OG  
ROOT
ATOM     18  CA  SER A  16      -1.305  10.019  14.282  1.00  2.34     0.200 C 
ENDROOT
BRANCH  18  19
ATOM     19  CB  SER A  16      -2.242   9.935  15.479  1.00  3.12     0.199 C 
BRANCH  19  20
ATOM     20  OG  SER A  16      -3.448   9.285  15.116  1.00  1.00    -0.398 OA
ATOM     21  H04 SER A  16      -3.883   9.783  14.420  1.00  1.00     0.209 HD
ENDBRANCH  19  20
ENDBRANCH  18  19
END_RES SER A  16
BEGIN_RES LEU A  32
REMARK  2 active torsions:
REMARK  status: ('A' for Active; 'I' for Inactive)
REMARK   10  A    between atoms: CA   and  CB  
REMARK   11  A    between atoms: CB   and  CG  
ROOT
ATOM     22  CA  LEU A  32     -10.272  -4.106   1.587  1.00 16.16     0.177 C 
ENDROOT
BRANCH  22  23
ATOM     23  CB  LEU A  32     -11.613  -3.858   0.880  1.00 12.35     0.038 C 
BRANCH  23  24
ATOM     24  CG  LEU A  32     -12.608  -5.013   1.115  1.00  9.77    -0.020 C 
ATOM     25  CD1 LEU A  32     -12.945  -5.125   2.583  1.00  4.35     0.009 C 
ATOM     26  CD2 LEU A  32     -13.870  -4.804   0.319  1.00 10.60     0.009 C 
ENDBRANCH  23  24
ENDBRANCH  22  23
END_RES LEU A  32
BEGIN_RES HIS A  38
REMARK  2 active torsions:
REMARK  status: ('A' for Active; 'I' for Inactive)
REMARK   12  A    between atoms: CA   and  CB  
REMARK   13  A    between atoms: CB   and  CG  
ROOT
ATOM     27  CA  HIS A  38     -10.959   4.941   1.621  1.00 16.94     0.182 C 
ENDROOT
BRANCH  27  28
ATOM     28  CB  HIS A  38     -11.810   4.840   2.881  1.00 15.47     0.095 C 
BRANCH  28  29
ATOM     29  CG  HIS A  38     -12.967   3.902   2.755  1.00 18.62     0.053 A 
ATOM     30  CD2 HIS A  38     -14.132   4.016   2.074  1.00 15.06     0.116 A 
ATOM     31  NE2 HIS A  38     -14.829   2.851   2.272  1.00 18.12    -0.359 N 
ATOM     32  CE1 HIS A  38     -14.120   2.052   3.047  1.00 14.78     0.207 A 
ATOM     33  H06 HIS A  38     -15.738   2.639   1.888  1.00 18.12     0.166 HD
ATOM     34  ND1 HIS A  38     -12.992   2.662   3.353  1.00 16.58    -0.247 NA
ENDBRANCH  28  29
ENDBRANCH  27  28
END_RES HIS A  38
BEGIN_RES TRP A  63
REMARK  2 active torsions:
REMARK  status: ('A' for Active; 'I' for Inactive)
REMARK   14  A    between atoms: CA   and  CB  
REMARK   15  A    between atoms: CB   and  CG  
ROOT
ATOM     35  CA  TRP A  63     -22.437   6.257   6.543  1.00 27.04     0.181 C 
ENDROOT
BRANCH  35  36
ATOM     36  CB  TRP A  63     -22.360   6.642   5.068  1.00 31.37     0.075 C 
BRANCH  36  37
ATOM     37  CG  TRP A  63     -20.953   6.804   4.533  1.00 34.37    -0.028 A 
ATOM     38  CD2 TRP A  63     -19.903   5.828   4.543  1.00 33.79    -0.002 A 
ATOM     39  CE3 TRP A  63     -19.786   4.531   5.047  1.00 32.99     0.014 A 
ATOM     40  CE2 TRP A  63     -18.796   6.398   3.875  1.00 35.84     0.042 A 
ATOM     41  CZ3 TRP A  63     -18.588   3.852   4.873  1.00 32.93     0.001 A 
ATOM     42  CH2 TRP A  63     -17.506   4.447   4.206  1.00 39.24     0.002 A 
ATOM     43  CZ2 TRP A  63     -17.591   5.716   3.699  1.00 37.99     0.030 A 
ATOM     44  NE1 TRP A  63     -19.161   7.656   3.483  1.00 37.98    -0.365 N 
ATOM     45  H06 TRP A  63     -18.575   8.308   2.981  1.00 37.98     0.165 HD
ATOM     46  CD1 TRP A  63     -20.455   7.891   3.884  1.00 38.16     0.096 A 
ENDBRANCH  36  37
ENDBRANCH  35  36
END_RES TRP A  63
BEGIN_RES LEU A  66
REMARK  2 active torsions:
REMARK  status: ('A' for Active; 'I' for Inactive)
REMARK   16  A    between atoms: CA   and  CB  
REMARK   17  A    between atoms: CB   and  CG  
ROOT
ATOM     47  CA  LEU A  66     -20.004   6.489  11.120  1.00 10.90     0.177 C 
ENDROOT
BRANCH  47  48
ATOM     48  CB  LEU A  66     -19.626   5.453  10.069  1.00 13.57     0.038 C 
BRANCH  48  49
ATOM     49  CG  LEU A  66     -19.448   4.011  10.541  1.00  8.73    -0.020 C 
ATOM     50  CD1 LEU A  66     -20.594   3.596  11.427  1.00 14.23     0.009 C 
ATOM     51  CD2 LEU A  66     -19.381   3.116   9.330  1.00  1.92     0.009 C 
ENDBRANCH  48  49
ENDBRANCH  47  48
END_RES LEU A  66
BEGIN_RES PHE A  70
REMARK  2 active torsions:
REMARK  status: ('A' for Active; 'I' for Inactive)
REMARK   18  A    between atoms: CA   and  CB  
REMARK   19  A    between atoms: CB   and  CG  
ROOT
ATOM     52  CA  PHE A  70     -14.974   9.434  13.165  1.00  8.78     0.180 C 
ENDROOT
BRANCH  52  53
ATOM     53  CB  PHE A  70     -14.707   9.132  11.681  1.00  6.33     0.073 C 
BRANCH  53  54
ATOM     54  CG  PHE A  70     -13.926   7.866  11.459  1.00  3.42    -0.056 A 
ATOM     55  CD1 PHE A  70     -13.571   7.458  10.182  1.00 13.88     0.007 A 
ATOM     56  CE1 PHE A  70     -12.882   6.249   9.979  1.00 12.71     0.001 A 
ATOM     57  CZ  PHE A  70     -12.544   5.442  11.065  1.00  4.21     0.000 A 
ATOM     58  CE2 PHE A  70     -12.890   5.840  12.344  1.00  2.83     0.001 A 
ATOM     59  CD2 PHE A  70     -13.578   7.049  12.537  1.00  1.00     0.007 A 
ENDBRANCH  53  54
ENDBRANCH  52  53
END_RES PHE A  70
BEGIN_RES TYR A  73
REMARK  3 active torsions:
REMARK  status: ('A' for Active; 'I' for Inactive)
REMARK   20  A    between atoms: CA   and  CB  
REMARK   21  A    between atoms: CB   and  CG  
REMARK   22  A    between atoms: CZ   and  OH  
ROOT
ATOM     60  CA  TYR A  73     -13.212  10.166  17.260  1.00 12.17     0.180 C 
ENDROOT
BRANCH  60  61
ATOM     61  CB  TYR A  73     -13.301   8.846  16.517  1.00 12.84     0.073 C 
BRANCH  61  62
ATOM     62  CG  TYR A  73     -13.780   7.726  17.373  1.00 15.89    -0.056 A 
ATOM     63  CD1 TYR A  73     -14.094   7.928  18.699  1.00 16.00     0.010 A 
ATOM     64  CE1 TYR A  73     -14.513   6.874  19.510  1.00 13.55     0.037 A 
ATOM     65  CZ  TYR A  73     -14.615   5.606  18.973  1.00 18.13     0.065 A 
ATOM     66  CE2 TYR A  73     -14.309   5.378  17.652  1.00 15.89     0.037 A 
ATOM     67  CD2 TYR A  73     -13.894   6.439  16.858  1.00 21.86     0.010 A 
BRANCH  65  68
ATOM     68  OH  TYR A  73     -15.032   4.555  19.752  1.00 12.12    -0.361 OA
ATOM     69  H08 TYR A  73     -14.373   4.375  20.428  1.00 12.12     0.217 HD
ENDBRANCH  65  68
ENDBRANCH  61  62
ENDBRANCH  60  61
END_RES TYR A  73
BEGIN_RES PHE A  77
REMARK  2 active torsions:
REMARK  status: ('A' for Active; 'I' for Inactive)
REMARK   23  A    between atoms: CA   and  CB  
REMARK   24  A    between atoms: CB   and  CG  
ROOT
ATOM     70  CA  PHE A  77      -8.400  10.581  20.110  1.00 17.17     0.180 C 
ENDROOT
BRANCH  70  71
ATOM     71  CB  PHE A  77      -8.228   9.750  18.851  1.00 10.44     0.073 C 
BRANCH  71  72
ATOM     72  CG  PHE A  77      -7.113   8.755  18.933  1.00  6.07    -0.056 A 
ATOM     73  CD2 PHE A  77      -7.103   7.796  19.920  1.00  9.61     0.007 A 
ATOM     74  CE2 PHE A  77      -6.072   6.867  20.003  1.00  1.00     0.001 A 
ATOM     75  CZ  PHE A  77      -5.039   6.897  19.082  1.00  1.92     0.000 A 
ATOM     76  CE1 PHE A  77      -5.035   7.849  18.087  1.00  9.25     0.001 A 
ATOM     77  CD1 PHE A  77      -6.074   8.776  18.017  1.00  9.63     0.007 A 
ENDBRANCH  71  72
ENDBRANCH  70  71
END_RES PHE A  77
BEGIN_RES LEU A  96
REMARK  2 active torsions:
REMARK  status: ('A' for Active; 'I' for Inactive)
REMARK   25  A    between atoms: CA   and  CB  
REMARK   26  A    between atoms: CB   and  CG  
ROOT
ATOM     78  CA  LEU A  96       0.717   6.481  17.359  1.00 16.08     0.177 C 
ENDROOT
BRANCH  78  79
ATOM     79  CB  LEU A  96      -0.370   7.101  18.230  1.00 18.83     0.038 C 
BRANCH  79  80
ATOM     80  CG  LEU A  96      -0.214   6.834  19.727  1.00 19.03    -0.020 C 
ATOM     81  CD1 LEU A  96       0.424   8.041  20.374  1.00 28.17     0.009 C 
ATOM     82  CD2 LEU A  96      -1.564   6.606  20.366  1.00 22.01     0.009 C 
ENDBRANCH  79  80
ENDBRANCH  78  79
END_RES LEU A  96
BEGIN_RES VAL A  98
REMARK  1 active torsions:
REMARK  status: ('A' for Active; 'I' for Inactive)
REMARK   27  A    between atoms: CA   and  CB  
ROOT
ATOM     83  CA  VAL A  98      -3.928   2.082  14.897  1.00 19.83     0.180 C 
ENDROOT
BRANCH  83  84
ATOM     84  CB  VAL A  98      -5.203   2.807  15.281  1.00 17.87     0.009 C 
ATOM     85  CG2 VAL A  98      -4.893   4.232  15.659  1.00 29.90     0.012 C 
ATOM     86  CG1 VAL A  98      -5.873   2.080  16.428  1.00 14.79     0.012 C 
ENDBRANCH  83  84
END_RES VAL A  98
BEGIN_RES ASN A 112
REMARK  2 active torsions:
REMARK  status: ('A' for Active; 'I' for Inactive)
REMARK   28  A    between atoms: CA   and  CB  
REMARK   29  A    between atoms: CB   and  CG  
REMARK       I    between atoms: CG   and  ND2 
ROOT
ATOM     87  CA  ASN A 112     -11.790  -8.793  14.069  1.00 37.70     0.185 C 
ENDROOT
BRANCH  87  88
ATOM     88  CB  ASN A 112     -12.992  -7.945  14.465  1.00 26.24     0.137 C 
BRANCH  88  89
ATOM     89  CG  ASN A 112     -13.812  -8.562  15.576  1.00 21.77     0.217 C 
ATOM     90  ND2 ASN A 112     -14.960  -9.132  15.212  1.00  9.31    -0.370 N 
ATOM     91  H04 ASN A 112     -15.555  -9.560  15.908  1.00  9.31     0.159 HD
ATOM     92  H05 ASN A 112     -15.236  -9.137  14.240  1.00  9.31     0.159 HD
ATOM     93  OD1 ASN A 112     -13.424  -8.523  16.750  1.00 21.61    -0.274 OA
ENDBRANCH  88  89
ENDBRANCH  87  88
END_RES ASN A 112
BEGIN_RES PHE A 114
REMARK  2 active torsions:
REMARK  status: ('A' for Active; 'I' for Inactive)
REMARK   30  A    between atoms: CA   and  CB  
REMARK   31  A    between atoms: CB   and  CG  
ROOT
ATOM     94  CA  PHE A 114      -7.754  -3.619  17.012  1.00 26.06     0.180 C 
ENDROOT
BRANCH  94  95
ATOM     95  CB  PHE A 114      -8.890  -3.080  17.867  1.00 19.95     0.073 C 
BRANCH  95  96
ATOM     96  CG  PHE A 114      -8.744  -1.630  18.200  1.00 17.65    -0.056 A 
ATOM     97  CD1 PHE A 114      -8.718  -1.202  19.524  1.00 13.01     0.007 A 
ATOM     98  CE1 PHE A 114      -8.612   0.147  19.834  1.00  6.74     0.001 A 
ATOM     99  CZ  PHE A 114      -8.528   1.092  18.815  1.00  6.27     0.000 A 
ATOM    100  CE2 PHE A 114      -8.553   0.678  17.494  1.00 17.36     0.001 A 
ATOM    101  CD2 PHE A 114      -8.661  -0.683  17.189  1.00 18.39     0.007 A 
ENDBRANCH  95  96
ENDBRANCH  94  95
END_RES PHE A 114
BEGIN_RES VAL A 116
REMARK  1 active torsions:
REMARK  status: ('A' for Active; 'I' for Inactive)
REMARK   32  A    between atoms: CA   and  CB  
ROOT
ATOM    102  CA  VAL A 116      -2.467   0.283  18.565  1.00 13.48     0.180 C 
ENDROOT
BRANCH 102 103
ATOM    103  CB  VAL A 116      -3.101   1.238  19.599  1.00 20.86     0.009 C 
ATOM    104  CG1 VAL A 116      -3.053   2.673  19.067  1.00 25.01     0.012 C 
ATOM    105  CG2 VAL A 116      -4.513   0.814  19.929  1.00 25.34     0.012 C 
ENDBRANCH 102 103
END_RES VAL A 116
BEGIN_RES ILE A 123
REMARK  2 active torsions:
REMARK  status: ('A' for Active; 'I' for Inactive)
REMARK   33  A    between atoms: CA   and  CB  
REMARK   34  A    between atoms: CB   and  CG1 
ROOT
ATOM    106  CA  ILE A 123       1.557  -1.626  23.222  1.00 15.07     0.180 C 
ENDROOT
BRANCH 106 107
ATOM    107  CB  ILE A 123       1.697  -0.112  23.461  1.00 14.41     0.013 C 
ATOM    108  CG2 ILE A 123       3.106   0.210  23.927  1.00 18.35     0.012 C 
BRANCH 107 109
ATOM    109  CG1 ILE A 123       1.375   0.658  22.183  1.00 15.23     0.002 C 
ATOM    110  CD1 ILE A 123       0.250   1.652  22.342  1.00 14.67     0.005 C 
ENDBRANCH 107 109
ENDBRANCH 106 107
END_RES ILE A 123
BEGIN_RES LEU A 124
REMARK  2 active torsions:
REMARK  status: ('A' for Active; 'I' for Inactive)
REMARK   35  A    between atoms: CA   and  CB  
REMARK   36  A    between atoms: CB   and  CG  
ROOT
ATOM    111  CA  LEU A 124      -2.057  -2.686  23.524  1.00 11.86     0.177 C 
ENDROOT
BRANCH 111 112
ATOM    112  CB  LEU A 124      -2.698  -1.652  24.429  1.00 14.60     0.038 C 
BRANCH 112 113
ATOM    113  CG  LEU A 124      -2.612  -0.250  23.845  1.00 16.19    -0.020 C 
ATOM    114  CD1 LEU A 124      -4.025   0.214  23.442  1.00 22.07     0.009 C 
ATOM    115  CD2 LEU A 124      -1.983   0.677  24.855  1.00  9.12     0.009 C 
ENDBRANCH 112 113
ENDBRANCH 111 112
END_RES LEU A 124
BEGIN_RES PHE A 126
REMARK  2 active torsions:
REMARK  status: ('A' for Active; 'I' for Inactive)
REMARK   37  A    between atoms: CA   and  CB  
REMARK   38  A    between atoms: CB   and  CG  
ROOT
ATOM    116  CA  PHE A 126      -8.784  -4.792  22.233  1.00 23.15     0.180 C 
ENDROOT
BRANCH 116 117
ATOM    117  CB  PHE A 126      -9.823  -4.011  21.461  1.00 20.65     0.073 C 
BRANCH 117 118
ATOM    118  CG  PHE A 126     -10.927  -3.505  22.305  1.00 23.65    -0.056 A 
ATOM    119  CD2 PHE A 126     -10.709  -2.485  23.215  1.00 36.63     0.007 A 
ATOM    120  CE2 PHE A 126     -11.756  -2.005  24.013  1.00 36.27     0.001 A 
ATOM    121  CZ  PHE A 126     -13.024  -2.554  23.893  1.00 18.06     0.000 A 
ATOM    122  CE1 PHE A 126     -13.246  -3.570  22.985  1.00  5.50     0.001 A 
ATOM    123  CD1 PHE A 126     -12.198  -4.040  22.193  1.00 15.29     0.007 A 
ENDBRANCH 117 118
ENDBRANCH 116 117
END_RES PHE A 126
BEGIN_RES TRP A 131
REMARK  2 active torsions:
REMARK  status: ('A' for Active; 'I' for Inactive)
REMARK   39  A    between atoms: CA   and  CB  
REMARK   40  A    between atoms: CB   and  CG  
ROOT
ATOM    124  CA  TRP A 131      -8.096  -3.335  26.542  1.00 14.52     0.181 C 
ENDROOT
BRANCH 124 125
ATOM    125  CB  TRP A 131      -7.651  -1.877  26.607  1.00 13.06     0.075 C 
BRANCH 125 126
ATOM    126  CG  TRP A 131      -7.967  -1.075  25.364  1.00 16.97    -0.028 A 
ATOM    127  CD2 TRP A 131      -8.992  -0.088  25.224  1.00 11.34    -0.002 A 
ATOM    128  CE2 TRP A 131      -8.926   0.407  23.907  1.00  5.87     0.042 A 
ATOM    129  CE3 TRP A 131      -9.963   0.425  26.091  1.00  3.80     0.014 A 
ATOM    130  CZ2 TRP A 131      -9.793   1.395  23.436  1.00  1.35     0.030 A 
ATOM    131  NE1 TRP A 131      -7.908  -0.249  23.272  1.00 13.90    -0.365 N 
ATOM    132  CH2 TRP A 131     -10.735   1.881  24.308  1.00  1.00     0.002 A 
ATOM    133  CZ3 TRP A 131     -10.826   1.402  25.629  1.00  1.00     0.001 A 
ATOM    134  CD1 TRP A 131      -7.335  -1.138  24.152  1.00 17.22     0.096 A 
ATOM    135  H07 TRP A 131      -7.623  -0.105  22.314  1.00 13.90     0.165 HD
ENDBRANCH 125 126
ENDBRANCH 124 125
END_RES TRP A 131
BEGIN_RES LEU A 148
REMARK  2 active torsions:
REMARK  status: ('A' for Active; 'I' for Inactive)
REMARK   41  A    between atoms: CA   and  CB  
REMARK   42  A    between atoms: CB   and  CG  
ROOT
ATOM    136  CA  LEU A 148      -9.018   3.259  29.295  1.00 16.99     0.177 C 
ENDROOT
BRANCH 136 137
ATOM    137  CB  LEU A 148      -8.166   2.574  28.236  1.00  6.39     0.038 C 
BRANCH 137 138
ATOM    138  CG  LEU A 148      -7.218   3.368  27.361  1.00  1.00    -0.020 C 
ATOM    139  CD2 LEU A 148      -7.833   3.609  26.012  1.00  1.00     0.009 C 
ATOM    140  CD1 LEU A 148      -5.926   2.585  27.226  1.00  2.71     0.009 C 
ENDBRANCH 137 138
ENDBRANCH 136 137
END_RES LEU A 148
BEGIN_RES THR A 154
REMARK  2 active torsions:
REMARK  status: ('A' for Active; 'I' for Inactive)
REMARK   43  A    between atoms: CA   and  CB  
REMARK   44  A    between atoms: CB   and  OG1 
ROOT
ATOM    141  CA  THR A 154     -15.990   3.959  24.426  1.00 20.45     0.205 C 
ENDROOT
BRANCH 141 142
ATOM    142  CB  THR A 154     -14.777   4.829  24.694  1.00 16.79     0.146 C 
ATOM    143  CG2 THR A 154     -13.684   4.528  23.687  1.00 20.24     0.042 C 
BRANCH 142 144
ATOM    144  OG1 THR A 154     -15.156   6.205  24.568  1.00 18.84    -0.393 OA
ATOM    145  H06 THR A 154     -15.102   6.470  23.647  1.00 18.84     0.210 HD
ENDBRANCH 142 144
ENDBRANCH 141 142
END_RES THR A 154
BEGIN_RES VAL A 158
REMARK  1 active torsions:
REMARK  status: ('A' for Active; 'I' for Inactive)
REMARK   45  A    between atoms: CA   and  CB  
ROOT
ATOM    146  CA  VAL A 158     -15.487  -0.189  19.892  1.00 15.49     0.180 C 
ENDROOT
BRANCH 146 147
ATOM    147  CB  VAL A 158     -14.291  -0.273  20.822  1.00  6.52     0.009 C 
ATOM    148  CG1 VAL A 158     -13.250  -1.224  20.278  1.00  1.00     0.012 C 
ATOM    149  CG2 VAL A 158     -13.717   1.100  20.991  1.00  5.99     0.012 C 
ENDBRANCH 146 147
END_RES VAL A 158
BEGIN_RES LEU A 161
REMARK  2 active torsions:
REMARK  status: ('A' for Active; 'I' for Inactive)
REMARK   46  A    between atoms: CA   and  CB  
REMARK   47  A    between atoms: CB   and  CG  
ROOT
ATOM    150  CA  LEU A 161     -18.031  -1.858  15.935  1.00 13.31     0.177 C 
ENDROOT
BRANCH 150 151
ATOM    151  CB  LEU A 161     -17.046  -0.706  16.001  1.00 14.13     0.038 C 
BRANCH 151 152
ATOM    152  CG  LEU A 161     -17.450   0.570  15.273  1.00 19.39    -0.020 C 
ATOM    153  CD2 LEU A 161     -18.811   1.028  15.739  1.00 27.75     0.009 C 
ATOM    154  CD1 LEU A 161     -17.476   0.299  13.793  1.00 18.59     0.009 C 
ENDBRANCH 151 152
ENDBRANCH 150 151
END_RES LEU A 161
BEGIN_RES GLN A 168
REMARK  3 active torsions:
REMARK  status: ('A' for Active; 'I' for Inactive)
REMARK   48  A    between atoms: CA   and  CB  
REMARK   49  A    between atoms: CB   and  CG  
REMARK   50  A    between atoms: CG   and  CD  
REMARK       I    between atoms: CD   and  NE2 
ROOT
ATOM    155  CA  GLN A 168     -22.035  -6.020   8.155  1.00 30.94     0.177 C 
ENDROOT
BRANCH 155 156
ATOM    156  CB  GLN A 168     -23.054  -5.218   8.946  1.00 41.76     0.044 C 
BRANCH 156 157
ATOM    157  CG  GLN A 168     -24.465  -5.732   8.849  1.00 61.20     0.105 C 
BRANCH 157 158
ATOM    158  CD  GLN A 168     -24.993  -5.668   7.429  1.00 75.49     0.215 C 
ATOM    159  NE2 GLN A 168     -25.123  -4.448   6.903  1.00 85.00    -0.370 N 
ATOM    160  H06 GLN A 168     -25.472  -4.339   5.961  1.00 85.00     0.159 HD
ATOM    161  H07 GLN A 168     -24.871  -3.634   7.446  1.00 85.00     0.159 HD
ATOM    162  OE1 GLN A 168     -25.290  -6.699   6.810  1.00 73.64    -0.274 OA
ENDBRANCH 157 158
ENDBRANCH 156 157
ENDBRANCH 155 156
END_RES GLN A 168
ENDMDL
MODEL 5
REMARK VINA RESULT:      -6.4      1.067      2.110
REMARK  Name = human_CD1d_brij35_pred.rank_0
REMARK  79 active torsions:
REMARK  status: ('A' for Active; 'I' for Inactive)
REMARK    1  A    between atoms: O_2  and  C_23
REMARK    2  A    between atoms: O_2  and  C_25
REMARK    3  A    between atoms: C_3  and  C_5
REMARK    4  A    between atoms: O_4  and  C_27
REMARK    5  A    between atoms: O_4  and  C_29
REMARK    6  A    between atoms: C_5  and  C_7
REMARK    7  A    between atoms: O_6  and  C_31
REMARK    8  A    between atoms: O_6  and  C_33
REMARK    9  A    between atoms: C_7  and  C_9
REMARK   10  A    between atoms: O_8  and  C_35
REMARK   11  A    between atoms: O_8  and  C_37
REMARK   12  A    between atoms: C_9  and  C_11
REMARK   13  A    between atoms: O_10  and  C_39
REMARK   14  A    between atoms: O_10  and  C_41
REMARK   15  A    between atoms: C_11  and  C_13
REMARK   16  A    between atoms: O_12  and  C_43
REMARK   17  A    between atoms: O_12  and  C_45
REMARK   18  A    between atoms: C_13  and  C_15
REMARK   19  A    between atoms: O_14  and  C_47
REMARK   20  A    between atoms: O_14  and  C_49
REMARK   21  A    between atoms: C_15  and  C_17
REMARK   22  A    between atoms: O_16  and  C_50
REMARK   23  A    between atoms: O_16  and  C_51
REMARK   24  A    between atoms: C_17  and  C_19
REMARK   25  A    between atoms: O_18  and  C_52
REMARK   26  A    between atoms: O_18  and  C_53
REMARK   27  A    between atoms: C_19  and  C_21
REMARK   28  A    between atoms: O_20  and  C_54
REMARK   29  A    between atoms: O_20  and  C_55
REMARK   30  A    between atoms: C_21  and  C_23
REMARK   31  A    between atoms: O_22  and  C_56
REMARK   32  A    between atoms: O_22  and  C_57
REMARK   33  A    between atoms: O_24  and  C_58
REMARK   34  A    between atoms: O_24  and  C_59
REMARK   35  A    between atoms: C_25  and  C_27
REMARK   36  A    between atoms: O_26  and  C_60
REMARK   37  A    between atoms: O_26  and  C_61
REMARK   38  A    between atoms: O_28  and  C_62
REMARK   39  A    between atoms: O_28  and  C_63
REMARK   40  A    between atoms: C_29  and  C_31
REMARK   41  A    between atoms: O_30  and  C_64
REMARK   42  A    between atoms: O_30  and  C_65
REMARK   43  A    between atoms: O_32  and  C_66
REMARK   44  A    between atoms: O_32  and  C_67
REMARK   45  A    between atoms: C_33  and  C_35
REMARK   46  A    between atoms: O_34  and  C_68
REMARK   47  A    between atoms: O_34  and  C_69
REMARK   48  A    between atoms: O_36  and  C_70
REMARK   49  A    between atoms: O_36  and  C_71
REMARK   50  A    between atoms: C_37  and  C_39
REMARK   51  A    between atoms: O_38  and  C_72
REMARK   52  A    between atoms: O_38  and  C_73
REMARK   53  A    between atoms: O_40  and  C_74
REMARK   54  A    between atoms: O_40  and  C_75
REMARK   55  A    between atoms: C_41  and  C_43
REMARK   56  A    between atoms: O_42  and  C_76
REMARK   57  A    between atoms: O_42  and  C_77
REMARK   58  A    between atoms: O_44  and  C_78
REMARK   59  A    between atoms: O_44  and  C_79
REMARK   60  A    between atoms: C_45  and  C_47
REMARK   61  A    between atoms: O_46  and  C_80
REMARK   62  A    between atoms: O_46  and  C_81
REMARK   63  A    between atoms: C_49  and  C_50
REMARK   64  A    between atoms: C_51  and  C_52
REMARK   65  A    between atoms: C_53  and  C_54
REMARK   66  A    between atoms: C_55  and  C_56
REMARK   67  A    between atoms: C_57  and  C_58
REMARK   68  A    between atoms: C_59  and  C_60
REMARK   69  A    between atoms: C_61  and  C_62
REMARK   70  A    between atoms: C_63  and  C_64
REMARK   71  A    between atoms: C_65  and  C_66
REMARK   72  A    between atoms: C_67  and  C_68
REMARK   73  A    between atoms: C_69  and  C_70
REMARK   74  A    between atoms: C_71  and  C_72
REMARK   75  A    between atoms: C_73  and  C_74
REMARK   76  A    between atoms: C_75  and  C_76
REMARK   77  A    between atoms: C_77  and  C_78
REMARK   78  A    between atoms: C_79  and  C_80
REMARK   79  A    between atoms: C_81  and  C_82
REMARK                            x       y       z     vdW  Elec       q    Type
REMARK                         _______ _______ _______ _____ _____    ______ ____
ROOT
ATOM      1  C   UNL     1     -10.143   5.277  18.371  0.00  0.00    +0.000 C 
ENDROOT
BRANCH   1   2
ATOM      2  C   UNL     1      -8.736   4.995  17.870  0.00  0.00    +0.000 C 
BRANCH   2   3
ATOM      3  O   UNL     1      -8.326   5.973  16.898  0.00  0.00    +0.000 OA
BRANCH   3   4
ATOM      4  C   UNL     1      -7.944   5.317  15.678  0.00  0.00    +0.000 C 
BRANCH   4   5
ATOM      5  C   UNL     1      -9.110   5.193  14.716  0.00  0.00    +0.000 C 
BRANCH   5   6
ATOM      6  O   UNL     1      -9.462   3.796  14.623  0.00  0.00    +0.000 OA
BRANCH   6   7
ATOM      7  C   UNL     1      -9.654   3.343  13.285  0.00  0.00    +0.000 C 
BRANCH   7   8
ATOM      8  C   UNL     1      -9.106   4.379  12.294  0.00  0.00    +0.000 C 
BRANCH   8   9
ATOM      9  O   UNL     1      -9.243   3.897  10.942  0.00  0.00    +0.000 OA
BRANCH   9  10
ATOM     10  C   UNL     1      -9.048   4.907   9.970  0.00  0.00    +0.000 C 
BRANCH  10  11
ATOM     11  C   UNL     1      -9.559   4.446   8.577  0.00  0.00    +0.000 C 
BRANCH  11  12
ATOM     12  O   UNL     1      -9.475   5.526   7.657  0.00  0.00    +0.000 OA
BRANCH  12  13
ATOM     13  C   UNL     1     -10.562   5.657   6.749  0.00  0.00    +0.000 C 
BRANCH  13  14
ATOM     14  C   UNL     1     -11.551   4.483   6.993  0.00  0.00    +0.000 C 
BRANCH  14  15
ATOM     15  O   UNL     1     -12.727   4.586   6.168  0.00  0.00    +0.000 OA
BRANCH  15  16
ATOM     16  C   UNL     1     -13.916   4.088   6.723  0.00  0.00    +0.000 C 
BRANCH  16  17
ATOM     17  C   UNL     1     -14.795   5.267   7.082  0.00  0.00    +0.000 C 
BRANCH  17  18
ATOM     18  O   UNL     1     -16.168   4.882   7.240  0.00  0.00    +0.000 OA
BRANCH  18  19
ATOM     19  C   UNL     1     -16.652   4.057   6.223  0.00  0.00    +0.000 C 
BRANCH  19  20
ATOM     20  C   UNL     1     -17.848   3.256   6.710  0.00  0.00    +0.000 C 
BRANCH  20  21
ATOM     21  O   UNL     1     -17.417   2.341   7.705  0.00  0.00    +0.000 OA
BRANCH  21  22
ATOM     22  C   UNL     1     -18.486   1.573   8.171  0.00  0.00    +0.000 C 
BRANCH  22  23
ATOM     23  C   UNL     1     -18.045   0.835   9.442  0.00  0.00    +0.000 C 
BRANCH  23  24
ATOM     24  O   UNL     1     -16.807   0.182   9.215  0.00  0.00    +0.000 OA
BRANCH  24  25
ATOM     25  C   UNL     1     -16.190  -0.245  10.428  0.00  0.00    +0.000 C 
BRANCH  25  26
ATOM     26  C   UNL     1     -15.564   0.999  11.100  0.00  0.00    +0.000 C 
BRANCH  26  27
ATOM     27  O   UNL     1     -14.639   1.597  10.191  0.00  0.00    +0.000 OA
BRANCH  27  28
ATOM     28  C   UNL     1     -14.772   2.994  10.091  0.00  0.00    +0.000 C 
BRANCH  28  29
ATOM     29  C   UNL     1     -16.033   3.503  10.736  0.00  0.00    +0.000 C 
BRANCH  29  30
ATOM     30  O   UNL     1     -15.871   4.839  11.106  0.00  0.00    +0.000 OA
BRANCH  30  31
ATOM     31  C   UNL     1     -16.460   5.149  12.354  0.00  0.00    +0.000 C 
BRANCH  31  32
ATOM     32  C   UNL     1     -16.276   3.972  13.288  0.00  0.00    +0.000 C 
BRANCH  32  33
ATOM     33  O   UNL     1     -15.139   4.206  14.079  0.00  0.00    +0.000 OA
BRANCH  33  34
ATOM     34  C   UNL     1     -14.168   3.223  13.943  0.00  0.00    +0.000 C 
BRANCH  34  35
ATOM     35  C   UNL     1     -13.814   2.683  15.314  0.00  0.00    +0.000 C 
BRANCH  35  36
ATOM     36  O   UNL     1     -12.408   2.488  15.389  0.00  0.00    +0.000 OA
BRANCH  36  37
ATOM     37  C   UNL     1     -12.054   1.151  15.116  0.00  0.00    +0.000 C 
BRANCH  37  38
ATOM     38  C   UNL     1     -13.126   0.221  15.713  0.00  0.00    +0.000 C 
BRANCH  38  39
ATOM     39  O   UNL     1     -13.119  -0.948  14.934  0.00  0.00    +0.000 OA
BRANCH  39  40
ATOM     40  C   UNL     1     -13.823  -0.746  13.676  0.00  0.00    +0.000 C 
BRANCH  40  42
ATOM     41  O   UNL     1     -12.335  -0.931  11.795  0.00  0.00    +0.000 OA
ATOM     42  C   UNL     1     -13.215  -1.668  12.635  0.00  0.00    +0.000 C 
ENDBRANCH  40  42
ENDBRANCH  39  40
ENDBRANCH  38  39
ENDBRANCH  37  38
ENDBRANCH  36  37
ENDBRANCH  35  36
ENDBRANCH  34  35
ENDBRANCH  33  34
ENDBRANCH  32  33
ENDBRANCH  31  32
ENDBRANCH  30  31
ENDBRANCH  29  30
ENDBRANCH  28  29
ENDBRANCH  27  28
ENDBRANCH  26  27
ENDBRANCH  25  26
ENDBRANCH  24  25
ENDBRANCH  23  24
ENDBRANCH  22  23
ENDBRANCH  21  22
ENDBRANCH  20  21
ENDBRANCH  19  20
ENDBRANCH  18  19
ENDBRANCH  17  18
ENDBRANCH  16  17
ENDBRANCH  15  16
ENDBRANCH  14  15
ENDBRANCH  13  14
ENDBRANCH  12  13
ENDBRANCH  11  12
ENDBRANCH  10  11
ENDBRANCH   9  10
ENDBRANCH   8   9
ENDBRANCH   7   8
ENDBRANCH   6   7
ENDBRANCH   5   6
ENDBRANCH   4   5
ENDBRANCH   3   4
ENDBRANCH   2   3
ENDBRANCH   1   2
BRANCH   1  43
ATOM     43  O   UNL     1     -10.115   5.757  19.708  0.00  0.00    +0.000 OA
BRANCH  43  44
ATOM     44  C   UNL     1     -11.289   6.398  20.073  0.00  0.00    +0.000 C 
BRANCH  44  45
ATOM     45  C   UNL     1     -11.082   7.914  20.013  0.00  0.00    +0.000 C 
BRANCH  45  46
ATOM     46  O   UNL     1     -11.345   8.456  21.304  0.00  0.00    +0.000 OA
BRANCH  46  47
ATOM     47  C   UNL     1     -12.468   7.946  21.954  0.00  0.00    +0.000 C 
BRANCH  47  48
ATOM     48  C   UNL     1     -12.660   8.663  23.300  0.00  0.00    +0.000 C 
BRANCH  48  49
ATOM     49  O   UNL     1     -14.014   8.820  23.534  0.00  0.00    +0.000 OA
BRANCH  49  50
ATOM     50  C   UNL     1     -14.266   9.724  24.601  0.00  0.00    +0.000 C 
BRANCH  50  51
ATOM     51  C   UNL     1     -13.171  10.785  24.619  0.00  0.00    +0.000 C 
BRANCH  51  52
ATOM     52  O   UNL     1     -12.805  11.060  25.986  0.00  0.00    +0.000 OA
BRANCH  52  53
ATOM     53  C   UNL     1     -13.487  10.173  26.879  0.00  0.00    +0.000 C 
BRANCH  53  54
ATOM     54  C   UNL     1     -12.720  10.089  28.208  0.00  0.00    +0.000 C 
BRANCH  54  55
ATOM     55  O   UNL     1     -11.409  10.637  28.018  0.00  0.00    +0.000 OA
BRANCH  55  56
ATOM     56  C   UNL     1     -10.787  10.919  29.262  0.00  0.00    +0.000 C 
BRANCH  56  57
ATOM     57  C   UNL     1      -9.578  11.762  28.968  0.00  0.00    +0.000 C 
BRANCH  57  58
ATOM     58  O   UNL     1      -8.413  11.121  29.460  0.00  0.00    +0.000 OA
BRANCH  58  59
ATOM     59  C   UNL     1      -7.613  10.617  28.441  0.00  0.00    +0.000 C 
BRANCH  59  60
ATOM     60  C   UNL     1      -7.459   9.118  28.637  0.00  0.00    +0.000 C 
BRANCH  60  61
ATOM     61  O   UNL     1      -8.336   8.447  27.743  0.00  0.00    +0.000 OA
BRANCH  61  62
ATOM     62  C   UNL     1      -9.272   7.625  28.401  0.00  0.00    +0.000 C 
BRANCH  62  63
ATOM     63  C   UNL     1     -10.395   7.273  27.416  0.00  0.00    +0.000 C 
BRANCH  63  64
ATOM     64  O   UNL     1     -10.657   5.883  27.577  0.00  0.00    +0.000 OA
BRANCH  64  65
ATOM     65  C   UNL     1     -10.972   5.276  26.399  0.00  0.00    +0.000 C 
BRANCH  65  66
ATOM     66  C   UNL     1     -10.590   6.162  25.190  0.00  0.00    +0.000 C 
BRANCH  66  67
ATOM     67  O   UNL     1     -10.278   5.303  24.093  0.00  0.00    +0.000 OA
BRANCH  67  68
ATOM     68  C   UNL     1      -9.360   5.915  23.188  0.00  0.00    +0.000 C 
BRANCH  68  69
ATOM     69  C   UNL     1      -8.421   4.786  22.711  0.00  0.00    +0.000 C 
BRANCH  69  70
ATOM     70  O   UNL     1      -7.193   4.975  23.451  0.00  0.00    +0.000 OA
BRANCH  70  71
ATOM     71  C   UNL     1      -6.915   6.363  23.540  0.00  0.00    +0.000 C 
BRANCH  71  72
ATOM     72  C   UNL     1      -5.513   6.472  24.222  0.00  0.00    +0.000 C 
BRANCH  72  73
ATOM     73  C   UNL     1      -4.484   6.261  23.114  0.00  0.00    +0.000 C 
BRANCH  73  74
ATOM     74  C   UNL     1      -3.406   5.305  23.632  0.00  0.00    +0.000 C 
BRANCH  74  75
ATOM     75  C   UNL     1      -3.938   4.525  24.802  0.00  0.00    +0.000 C 
BRANCH  75  76
ATOM     76  C   UNL     1      -2.806   4.211  25.735  0.00  0.00    +0.000 C 
BRANCH  76  77
ATOM     77  C   UNL     1      -1.574   4.963  25.269  0.00  0.00    +0.000 C 
BRANCH  77  78
ATOM     78  C   UNL     1      -0.796   5.443  26.495  0.00  0.00    +0.000 C 
BRANCH  78  79
ATOM     79  C   UNL     1       0.143   6.570  26.095  0.00  0.00    +0.000 C 
BRANCH  79  80
ATOM     80  C   UNL     1      -0.374   7.317  24.897  0.00  0.00    +0.000 C 
BRANCH  80  82
ATOM     81  C   UNL     1       1.144   9.098  24.079  0.00  0.00    +0.000 C 
ATOM     82  C   UNL     1       0.762   7.638  23.960  0.00  0.00    +0.000 C 
ENDBRANCH  80  82
ENDBRANCH  79  80
ENDBRANCH  78  79
ENDBRANCH  77  78
ENDBRANCH  76  77
ENDBRANCH  75  76
ENDBRANCH  74  75
ENDBRANCH  73  74
ENDBRANCH  72  73
ENDBRANCH  71  72
ENDBRANCH  70  71
ENDBRANCH  69  70
ENDBRANCH  68  69
ENDBRANCH  67  68
ENDBRANCH  66  67
ENDBRANCH  65  66
ENDBRANCH  64  65
ENDBRANCH  63  64
ENDBRANCH  62  63
ENDBRANCH  61  62
ENDBRANCH  60  61
ENDBRANCH  59  60
ENDBRANCH  58  59
ENDBRANCH  57  58
ENDBRANCH  56  57
ENDBRANCH  55  56
ENDBRANCH  54  55
ENDBRANCH  53  54
ENDBRANCH  52  53
ENDBRANCH  51  52
ENDBRANCH  50  51
ENDBRANCH  49  50
ENDBRANCH  48  49
ENDBRANCH  47  48
ENDBRANCH  46  47
ENDBRANCH  45  46
ENDBRANCH  44  45
ENDBRANCH  43  44
ENDBRANCH   1  43
TORSDOF 79
BEGIN_RES LEU A  10
REMARK  2 active torsions:
REMARK  status: ('A' for Active; 'I' for Inactive)
REMARK    1  A    between atoms: CA   and  CB  
REMARK    2  A    between atoms: CB   and  CG  
ROOT
ATOM      1  CA  LEU A  10     -10.775  -4.871   5.898  1.00 25.14     0.177 C 
ENDROOT
BRANCH   1   2
ATOM      2  CB  LEU A  10     -12.191  -4.387   6.226  1.00 17.87     0.038 C 
BRANCH   2   3
ATOM      3  CG  LEU A  10     -12.350  -2.865   6.249  1.00 24.95    -0.020 C 
ATOM      4  CD2 LEU A  10     -12.841  -2.448   7.594  1.00 26.38     0.009 C 
ATOM      5  CD1 LEU A  10     -13.307  -2.403   5.163  1.00 28.12     0.009 C 
ENDBRANCH   2   3
ENDBRANCH   1   2
END_RES LEU A  10
BEGIN_RES CYS A  12
REMARK  2 active torsions:
REMARK  status: ('A' for Active; 'I' for Inactive)
REMARK    3  A    between atoms: CA   and  CB  
REMARK    4  A    between atoms: CB   and  SG  
ROOT
ATOM      6  CA  CYS A  12      -8.555   0.470   8.750  1.00 23.16     0.185 C 
ENDROOT
BRANCH   6   7
ATOM      7  CB  CYS A  12      -9.828   0.763   9.555  1.00 20.43     0.105 C 
BRANCH   7   8
ATOM      8  SG  CYS A  12     -11.347   1.017   8.586  1.00 24.64    -0.180 SA
ATOM      9  H04 CYS A  12     -12.404   0.599   9.294  1.00 24.64     0.101 HD
ENDBRANCH   7   8
ENDBRANCH   6   7
END_RES CYS A  12
BEGIN_RES GLN A  14
REMARK  3 active torsions:
REMARK  status: ('A' for Active; 'I' for Inactive)
REMARK    5  A    between atoms: CA   and  CB  
REMARK    6  A    between atoms: CB   and  CG  
REMARK    7  A    between atoms: CG   and  CD  
REMARK       I    between atoms: CD   and  NE2 
ROOT
ATOM     10  CA  GLN A  14      -4.645   5.402  11.377  1.00 10.43     0.177 C 
ENDROOT
BRANCH  10  11
ATOM     11  CB  GLN A  14      -5.541   5.549  12.608  1.00 14.45     0.044 C 
BRANCH  11  12
ATOM     12  CG  GLN A  14      -6.488   6.725  12.545  1.00 13.74     0.105 C 
BRANCH  12  13
ATOM     13  CD  GLN A  14      -5.891   7.979  13.137  1.00 16.29     0.215 C 
ATOM     14  NE2 GLN A  14      -6.319   8.325  14.331  1.00  8.57    -0.370 N 
ATOM     15  H06 GLN A  14      -5.954   9.154  14.778  1.00  8.57     0.159 HD
ATOM     16  H07 GLN A  14      -7.012   7.761  14.803  1.00  8.57     0.159 HD
ATOM     17  OE1 GLN A  14      -5.054   8.627  12.527  1.00 23.55    -0.274 OA
ENDBRANCH  12  13
ENDBRANCH  11  12
ENDBRANCH  10  11
END_RES GLN A  14
BEGIN_RES SER A  16
REMARK  2 active torsions:
REMARK  status: ('A' for Active; 'I' for Inactive)
REMARK    8  A    between atoms: CA   and  CB  
REMARK    9  A    between atoms: CB   and  OG  
ROOT
ATOM     18  CA  SER A  16      -1.305  10.019  14.282  1.00  2.34     0.200 C 
ENDROOT
BRANCH  18  19
ATOM     19  CB  SER A  16      -2.242   9.935  15.479  1.00  3.12     0.199 C 
BRANCH  19  20
ATOM     20  OG  SER A  16      -3.445   9.280  15.118  1.00  1.00    -0.398 OA
ATOM     21  H04 SER A  16      -3.290   8.725  14.350  1.00  1.00     0.209 HD
ENDBRANCH  19  20
ENDBRANCH  18  19
END_RES SER A  16
BEGIN_RES LEU A  32
REMARK  2 active torsions:
REMARK  status: ('A' for Active; 'I' for Inactive)
REMARK   10  A    between atoms: CA   and  CB  
REMARK   11  A    between atoms: CB   and  CG  
ROOT
ATOM     22  CA  LEU A  32     -10.272  -4.106   1.587  1.00 16.16     0.177 C 
ENDROOT
BRANCH  22  23
ATOM     23  CB  LEU A  32     -11.613  -3.858   0.880  1.00 12.35     0.038 C 
BRANCH  23  24
ATOM     24  CG  LEU A  32     -12.683  -4.885   1.302  1.00  9.77    -0.020 C 
ATOM     25  CD1 LEU A  32     -12.430  -6.214   0.630  1.00  4.35     0.009 C 
ATOM     26  CD2 LEU A  32     -12.694  -5.066   2.797  1.00 10.60     0.009 C 
ENDBRANCH  23  24
ENDBRANCH  22  23
END_RES LEU A  32
BEGIN_RES HIS A  38
REMARK  2 active torsions:
REMARK  status: ('A' for Active; 'I' for Inactive)
REMARK   12  A    between atoms: CA   and  CB  
REMARK   13  A    between atoms: CB   and  CG  
ROOT
ATOM     27  CA  HIS A  38     -10.959   4.941   1.621  1.00 16.94     0.182 C 
ENDROOT
BRANCH  27  28
ATOM     28  CB  HIS A  38     -11.810   4.840   2.881  1.00 15.47     0.095 C 
BRANCH  28  29
ATOM     29  CG  HIS A  38     -12.996   3.941   2.738  1.00 18.62     0.053 A 
ATOM     30  CD2 HIS A  38     -14.155   4.101   2.056  1.00 15.06     0.116 A 
ATOM     31  NE2 HIS A  38     -14.888   2.956   2.236  1.00 18.12    -0.359 N 
ATOM     32  CE1 HIS A  38     -14.207   2.125   3.001  1.00 14.78     0.207 A 
ATOM     33  H06 HIS A  38     -15.803   2.779   1.846  1.00 18.12     0.166 HD
ATOM     34  ND1 HIS A  38     -13.062   2.694   3.319  1.00 16.58    -0.247 NA
ENDBRANCH  28  29
ENDBRANCH  27  28
END_RES HIS A  38
BEGIN_RES TRP A  63
REMARK  2 active torsions:
REMARK  status: ('A' for Active; 'I' for Inactive)
REMARK   14  A    between atoms: CA   and  CB  
REMARK   15  A    between atoms: CB   and  CG  
ROOT
ATOM     35  CA  TRP A  63     -22.437   6.257   6.543  1.00 27.04     0.181 C 
ENDROOT
BRANCH  35  36
ATOM     36  CB  TRP A  63     -22.360   6.642   5.068  1.00 31.37     0.075 C 
BRANCH  36  37
ATOM     37  CG  TRP A  63     -20.966   6.598   4.478  1.00 34.37    -0.028 A 
ATOM     38  CD2 TRP A  63     -20.267   7.665   3.823  1.00 33.79    -0.002 A 
ATOM     39  CE3 TRP A  63     -20.600   8.976   3.475  1.00 32.99     0.014 A 
ATOM     40  CE2 TRP A  63     -18.977   7.186   3.505  1.00 35.84     0.042 A 
ATOM     41  CZ3 TRP A  63     -19.652   9.757   2.829  1.00 32.93     0.001 A 
ATOM     42  CH2 TRP A  63     -18.378   9.251   2.526  1.00 39.24     0.002 A 
ATOM     43  CZ2 TRP A  63     -18.022   7.971   2.857  1.00 37.99     0.030 A 
ATOM     44  NE1 TRP A  63     -18.903   5.893   3.946  1.00 37.98    -0.365 N 
ATOM     45  H06 TRP A  63     -18.098   5.289   3.859  1.00 37.98     0.165 HD
ATOM     46  CD1 TRP A  63     -20.101   5.550   4.525  1.00 38.16     0.096 A 
ENDBRANCH  36  37
ENDBRANCH  35  36
END_RES TRP A  63
BEGIN_RES LEU A  66
REMARK  2 active torsions:
REMARK  status: ('A' for Active; 'I' for Inactive)
REMARK   16  A    between atoms: CA   and  CB  
REMARK   17  A    between atoms: CB   and  CG  
ROOT
ATOM     47  CA  LEU A  66     -20.004   6.489  11.120  1.00 10.90     0.177 C 
ENDROOT
BRANCH  47  48
ATOM     48  CB  LEU A  66     -19.626   5.453  10.069  1.00 13.57     0.038 C 
BRANCH  48  49
ATOM     49  CG  LEU A  66     -19.735   3.981  10.466  1.00  8.73    -0.020 C 
ATOM     50  CD1 LEU A  66     -19.764   3.837  11.966  1.00 14.23     0.009 C 
ATOM     51  CD2 LEU A  66     -20.998   3.418   9.868  1.00  1.92     0.009 C 
ENDBRANCH  48  49
ENDBRANCH  47  48
END_RES LEU A  66
BEGIN_RES PHE A  70
REMARK  2 active torsions:
REMARK  status: ('A' for Active; 'I' for Inactive)
REMARK   18  A    between atoms: CA   and  CB  
REMARK   19  A    between atoms: CB   and  CG  
ROOT
ATOM     52  CA  PHE A  70     -14.974   9.434  13.165  1.00  8.78     0.180 C 
ENDROOT
BRANCH  52  53
ATOM     53  CB  PHE A  70     -14.707   9.132  11.681  1.00  6.33     0.073 C 
BRANCH  53  54
ATOM     54  CG  PHE A  70     -13.928   7.864  11.459  1.00  3.42    -0.056 A 
ATOM     55  CD1 PHE A  70     -13.408   7.148  12.527  1.00 13.88     0.007 A 
ATOM     56  CE1 PHE A  70     -12.641   5.989  12.310  1.00 12.71     0.001 A 
ATOM     57  CZ  PHE A  70     -12.393   5.545  11.011  1.00  4.21     0.000 A 
ATOM     58  CE2 PHE A  70     -12.907   6.250   9.939  1.00  2.83     0.001 A 
ATOM     59  CD2 PHE A  70     -13.673   7.406  10.166  1.00  1.00     0.007 A 
ENDBRANCH  53  54
ENDBRANCH  52  53
END_RES PHE A  70
BEGIN_RES TYR A  73
REMARK  3 active torsions:
REMARK  status: ('A' for Active; 'I' for Inactive)
REMARK   20  A    between atoms: CA   and  CB  
REMARK   21  A    between atoms: CB   and  CG  
REMARK   22  A    between atoms: CZ   and  OH  
ROOT
ATOM     60  CA  TYR A  73     -13.212  10.166  17.260  1.00 12.17     0.180 C 
ENDROOT
BRANCH  60  61
ATOM     61  CB  TYR A  73     -13.301   8.846  16.517  1.00 12.84     0.073 C 
BRANCH  61  62
ATOM     62  CG  TYR A  73     -13.780   7.726  17.373  1.00 15.89    -0.056 A 
ATOM     63  CD1 TYR A  73     -13.609   6.414  16.989  1.00 16.00     0.010 A 
ATOM     64  CE1 TYR A  73     -14.084   5.364  17.774  1.00 13.55     0.037 A 
ATOM     65  CZ  TYR A  73     -14.739   5.646  18.956  1.00 18.13     0.065 A 
ATOM     66  CE2 TYR A  73     -14.922   6.947  19.363  1.00 15.89     0.037 A 
ATOM     67  CD2 TYR A  73     -14.441   7.981  18.569  1.00 21.86     0.010 A 
BRANCH  65  68
ATOM     68  OH  TYR A  73     -15.210   4.628  19.748  1.00 12.12    -0.361 OA
ATOM     69  H08 TYR A  73     -15.733   4.024  19.216  1.00 12.12     0.217 HD
ENDBRANCH  65  68
ENDBRANCH  61  62
ENDBRANCH  60  61
END_RES TYR A  73
BEGIN_RES PHE A  77
REMARK  2 active torsions:
REMARK  status: ('A' for Active; 'I' for Inactive)
REMARK   23  A    between atoms: CA   and  CB  
REMARK   24  A    between atoms: CB   and  CG  
ROOT
ATOM     70  CA  PHE A  77      -8.400  10.581  20.110  1.00 17.17     0.180 C 
ENDROOT
BRANCH  70  71
ATOM     71  CB  PHE A  77      -8.228   9.750  18.851  1.00 10.44     0.073 C 
BRANCH  71  72
ATOM     72  CG  PHE A  77      -7.174   8.693  18.965  1.00  6.07    -0.056 A 
ATOM     73  CD2 PHE A  77      -7.263   7.719  19.933  1.00  9.61     0.007 A 
ATOM     74  CE2 PHE A  77      -6.290   6.732  20.045  1.00  1.00     0.001 A 
ATOM     75  CZ  PHE A  77      -5.214   6.721  19.174  1.00  1.92     0.000 A 
ATOM     76  CE1 PHE A  77      -5.112   7.687  18.200  1.00  9.25     0.001 A 
ATOM     77  CD1 PHE A  77      -6.094   8.672  18.099  1.00  9.63     0.007 A 
ENDBRANCH  71  72
ENDBRANCH  70  71
END_RES PHE A  77
BEGIN_RES LEU A  96
REMARK  2 active torsions:
REMARK  status: ('A' for Active; 'I' for Inactive)
REMARK   25  A    between atoms: CA   and  CB  
REMARK   26  A    between atoms: CB   and  CG  
ROOT
ATOM     78  CA  LEU A  96       0.717   6.481  17.359  1.00 16.08     0.177 C 
ENDROOT
BRANCH  78  79
ATOM     79  CB  LEU A  96      -0.370   7.101  18.230  1.00 18.83     0.038 C 
BRANCH  79  80
ATOM     80  CG  LEU A  96      -0.151   6.935  19.734  1.00 19.03    -0.020 C 
ATOM     81  CD1 LEU A  96       0.560   8.159  20.261  1.00 28.17     0.009 C 
ATOM     82  CD2 LEU A  96      -1.475   6.805  20.449  1.00 22.01     0.009 C 
ENDBRANCH  79  80
ENDBRANCH  78  79
END_RES LEU A  96
BEGIN_RES VAL A  98
REMARK  1 active torsions:
REMARK  status: ('A' for Active; 'I' for Inactive)
REMARK   27  A    between atoms: CA   and  CB  
ROOT
ATOM     83  CA  VAL A  98      -3.928   2.082  14.897  1.00 19.83     0.180 C 
ENDROOT
BRANCH  83  84
ATOM     84  CB  VAL A  98      -5.203   2.807  15.281  1.00 17.87     0.009 C 
ATOM     85  CG2 VAL A  98      -5.307   2.911  16.781  1.00 29.90     0.012 C 
ATOM     86  CG1 VAL A  98      -6.396   2.071  14.709  1.00 14.79     0.012 C 
ENDBRANCH  83  84
END_RES VAL A  98
BEGIN_RES ASN A 112
REMARK  2 active torsions:
REMARK  status: ('A' for Active; 'I' for Inactive)
REMARK   28  A    between atoms: CA   and  CB  
REMARK   29  A    between atoms: CB   and  CG  
REMARK       I    between atoms: CG   and  ND2 
ROOT
ATOM     87  CA  ASN A 112     -11.790  -8.793  14.069  1.00 37.70     0.185 C 
ENDROOT
BRANCH  87  88
ATOM     88  CB  ASN A 112     -12.992  -7.945  14.465  1.00 26.24     0.137 C 
BRANCH  88  89
ATOM     89  CG  ASN A 112     -13.801  -8.552  15.589  1.00 21.77     0.217 C 
ATOM     90  ND2 ASN A 112     -14.946  -9.139  15.239  1.00  9.31    -0.370 N 
ATOM     91  H04 ASN A 112     -15.533  -9.561  15.944  1.00  9.31     0.159 HD
ATOM     92  H05 ASN A 112     -15.226  -9.160  14.268  1.00  9.31     0.159 HD
ATOM     93  OD1 ASN A 112     -13.409  -8.493  16.760  1.00 21.61    -0.274 OA
ENDBRANCH  88  89
ENDBRANCH  87  88
END_RES ASN A 112
BEGIN_RES PHE A 114
REMARK  2 active torsions:
REMARK  status: ('A' for Active; 'I' for Inactive)
REMARK   30  A    between atoms: CA   and  CB  
REMARK   31  A    between atoms: CB   and  CG  
ROOT
ATOM     94  CA  PHE A 114      -7.754  -3.619  17.012  1.00 26.06     0.180 C 
ENDROOT
BRANCH  94  95
ATOM     95  CB  PHE A 114      -8.890  -3.080  17.867  1.00 19.95     0.073 C 
BRANCH  95  96
ATOM     96  CG  PHE A 114      -9.010  -1.591  17.822  1.00 17.65    -0.056 A 
ATOM     97  CD1 PHE A 114     -10.180  -0.958  18.233  1.00 13.01     0.007 A 
ATOM     98  CE1 PHE A 114     -10.303   0.424  18.164  1.00  6.74     0.001 A 
ATOM     99  CZ  PHE A 114      -9.248   1.195  17.683  1.00  6.27     0.000 A 
ATOM    100  CE2 PHE A 114      -8.079   0.575  17.273  1.00 17.36     0.001 A 
ATOM    101  CD2 PHE A 114      -7.962  -0.817  17.344  1.00 18.39     0.007 A 
ENDBRANCH  95  96
ENDBRANCH  94  95
END_RES PHE A 114
BEGIN_RES VAL A 116
REMARK  1 active torsions:
REMARK  status: ('A' for Active; 'I' for Inactive)
REMARK   32  A    between atoms: CA   and  CB  
ROOT
ATOM    102  CA  VAL A 116      -2.467   0.283  18.565  1.00 13.48     0.180 C 
ENDROOT
BRANCH 102 103
ATOM    103  CB  VAL A 116      -3.101   1.238  19.599  1.00 20.86     0.009 C 
ATOM    104  CG1 VAL A 116      -2.810   2.688  19.202  1.00 25.01     0.012 C 
ATOM    105  CG2 VAL A 116      -4.585   0.983  19.728  1.00 25.34     0.012 C 
ENDBRANCH 102 103
END_RES VAL A 116
BEGIN_RES ILE A 123
REMARK  2 active torsions:
REMARK  status: ('A' for Active; 'I' for Inactive)
REMARK   33  A    between atoms: CA   and  CB  
REMARK   34  A    between atoms: CB   and  CG1 
ROOT
ATOM    106  CA  ILE A 123       1.557  -1.626  23.222  1.00 15.07     0.180 C 
ENDROOT
BRANCH 106 107
ATOM    107  CB  ILE A 123       1.697  -0.112  23.461  1.00 14.41     0.013 C 
ATOM    108  CG2 ILE A 123       3.114   0.214  23.899  1.00 18.35     0.012 C 
BRANCH 107 109
ATOM    109  CG1 ILE A 123       1.346   0.660  22.191  1.00 15.23     0.002 C 
ATOM    110  CD1 ILE A 123       0.245   1.674  22.384  1.00 14.67     0.005 C 
ENDBRANCH 107 109
ENDBRANCH 106 107
END_RES ILE A 123
BEGIN_RES LEU A 124
REMARK  2 active torsions:
REMARK  status: ('A' for Active; 'I' for Inactive)
REMARK   35  A    between atoms: CA   and  CB  
REMARK   36  A    between atoms: CB   and  CG  
ROOT
ATOM    111  CA  LEU A 124      -2.057  -2.686  23.524  1.00 11.86     0.177 C 
ENDROOT
BRANCH 111 112
ATOM    112  CB  LEU A 124      -2.698  -1.652  24.429  1.00 14.60     0.038 C 
BRANCH 112 113
ATOM    113  CG  LEU A 124      -2.599  -0.248  23.852  1.00 16.19    -0.020 C 
ATOM    114  CD1 LEU A 124      -3.998   0.204  23.389  1.00 22.07     0.009 C 
ATOM    115  CD2 LEU A 124      -2.023   0.682  24.890  1.00  9.12     0.009 C 
ENDBRANCH 112 113
ENDBRANCH 111 112
END_RES LEU A 124
BEGIN_RES PHE A 126
REMARK  2 active torsions:
REMARK  status: ('A' for Active; 'I' for Inactive)
REMARK   37  A    between atoms: CA   and  CB  
REMARK   38  A    between atoms: CB   and  CG  
ROOT
ATOM    116  CA  PHE A 126      -8.784  -4.792  22.233  1.00 23.15     0.180 C 
ENDROOT
BRANCH 116 117
ATOM    117  CB  PHE A 126      -9.823  -4.011  21.461  1.00 20.65     0.073 C 
BRANCH 117 118
ATOM    118  CG  PHE A 126     -10.959  -3.559  22.293  1.00 23.65    -0.056 A 
ATOM    119  CD2 PHE A 126     -10.805  -2.517  23.191  1.00 36.63     0.007 A 
ATOM    120  CE2 PHE A 126     -11.883  -2.088  23.977  1.00 36.27     0.001 A 
ATOM    121  CZ  PHE A 126     -13.116  -2.711  23.860  1.00 18.06     0.000 A 
ATOM    122  CE1 PHE A 126     -13.274  -3.749  22.964  1.00  5.50     0.001 A 
ATOM    123  CD1 PHE A 126     -12.197  -4.168  22.182  1.00 15.29     0.007 A 
ENDBRANCH 117 118
ENDBRANCH 116 117
END_RES PHE A 126
BEGIN_RES TRP A 131
REMARK  2 active torsions:
REMARK  status: ('A' for Active; 'I' for Inactive)
REMARK   39  A    between atoms: CA   and  CB  
REMARK   40  A    between atoms: CB   and  CG  
ROOT
ATOM    124  CA  TRP A 131      -8.096  -3.335  26.542  1.00 14.52     0.181 C 
ENDROOT
BRANCH 124 125
ATOM    125  CB  TRP A 131      -7.651  -1.877  26.607  1.00 13.06     0.075 C 
BRANCH 125 126
ATOM    126  CG  TRP A 131      -8.038  -1.055  25.398  1.00 16.97    -0.028 A 
ATOM    127  CD2 TRP A 131      -9.112  -0.113  25.316  1.00 11.34    -0.002 A 
ATOM    128  CE2 TRP A 131      -9.105   0.423  24.013  1.00  5.87     0.042 A 
ATOM    129  CE3 TRP A 131     -10.081   0.328  26.224  1.00  3.80     0.014 A 
ATOM    130  CZ2 TRP A 131     -10.030   1.382  23.596  1.00  1.35     0.030 A 
ATOM    131  NE1 TRP A 131      -8.076  -0.166  23.331  1.00 13.90    -0.365 N 
ATOM    132  CH2 TRP A 131     -10.969   1.797  24.507  1.00  1.00     0.002 A 
ATOM    133  CZ3 TRP A 131     -11.001   1.276  25.815  1.00  1.00     0.001 A 
ATOM    134  CD1 TRP A 131      -7.439  -1.052  24.168  1.00 17.22     0.096 A 
ATOM    135  H07 TRP A 131      -7.826   0.019  22.371  1.00 13.90     0.165 HD
ENDBRANCH 125 126
ENDBRANCH 124 125
END_RES TRP A 131
BEGIN_RES LEU A 148
REMARK  2 active torsions:
REMARK  status: ('A' for Active; 'I' for Inactive)
REMARK   41  A    between atoms: CA   and  CB  
REMARK   42  A    between atoms: CB   and  CG  
ROOT
ATOM    136  CA  LEU A 148      -9.018   3.259  29.295  1.00 16.99     0.177 C 
ENDROOT
BRANCH 136 137
ATOM    137  CB  LEU A 148      -8.166   2.574  28.236  1.00  6.39     0.038 C 
BRANCH 137 138
ATOM    138  CG  LEU A 148      -7.927   3.220  26.887  1.00  1.00    -0.020 C 
ATOM    139  CD2 LEU A 148      -6.853   2.484  26.140  1.00  1.00     0.009 C 
ATOM    140  CD1 LEU A 148      -7.523   4.665  27.116  1.00  2.71     0.009 C 
ENDBRANCH 137 138
ENDBRANCH 136 137
END_RES LEU A 148
BEGIN_RES THR A 154
REMARK  2 active torsions:
REMARK  status: ('A' for Active; 'I' for Inactive)
REMARK   43  A    between atoms: CA   and  CB  
REMARK   44  A    between atoms: CB   and  OG1 
ROOT
ATOM    141  CA  THR A 154     -15.990   3.959  24.426  1.00 20.45     0.205 C 
ENDROOT
BRANCH 141 142
ATOM    142  CB  THR A 154     -14.777   4.829  24.694  1.00 16.79     0.146 C 
ATOM    143  CG2 THR A 154     -13.609   4.376  23.840  1.00 20.24     0.042 C 
BRANCH 142 144
ATOM    144  OG1 THR A 154     -15.096   6.186  24.360  1.00 18.84    -0.393 OA
ATOM    145  H06 THR A 154     -15.286   6.249  23.421  1.00 18.84     0.210 HD
ENDBRANCH 142 144
ENDBRANCH 141 142
END_RES THR A 154
BEGIN_RES VAL A 158
REMARK  1 active torsions:
REMARK  status: ('A' for Active; 'I' for Inactive)
REMARK   45  A    between atoms: CA   and  CB  
ROOT
ATOM    146  CA  VAL A 158     -15.487  -0.189  19.892  1.00 15.49     0.180 C 
ENDROOT
BRANCH 146 147
ATOM    147  CB  VAL A 158     -14.291  -0.273  20.822  1.00  6.52     0.009 C 
ATOM    148  CG1 VAL A 158     -13.285  -1.282  20.317  1.00  1.00     0.012 C 
ATOM    149  CG2 VAL A 158     -13.670   1.085  20.929  1.00  5.99     0.012 C 
ENDBRANCH 146 147
END_RES VAL A 158
BEGIN_RES LEU A 161
REMARK  2 active torsions:
REMARK  status: ('A' for Active; 'I' for Inactive)
REMARK   46  A    between atoms: CA   and  CB  
REMARK   47  A    between atoms: CB   and  CG  
ROOT
ATOM    150  CA  LEU A 161     -18.031  -1.858  15.935  1.00 13.31     0.177 C 
ENDROOT
BRANCH 150 151
ATOM    151  CB  LEU A 161     -17.046  -0.706  16.001  1.00 14.13     0.038 C 
BRANCH 151 152
ATOM    152  CG  LEU A 161     -17.508   0.612  15.393  1.00 19.39    -0.020 C 
ATOM    153  CD2 LEU A 161     -17.044   1.771  16.243  1.00 27.75     0.009 C 
ATOM    154  CD1 LEU A 161     -19.010   0.608  15.305  1.00 18.59     0.009 C 
ENDBRANCH 151 152
ENDBRANCH 150 151
END_RES LEU A 161
BEGIN_RES GLN A 168
REMARK  3 active torsions:
REMARK  status: ('A' for Active; 'I' for Inactive)
REMARK   48  A    between atoms: CA   and  CB  
REMARK   49  A    between atoms: CB   and  CG  
REMARK   50  A    between atoms: CG   and  CD  
REMARK       I    between atoms: CD   and  NE2 
ROOT
ATOM    155  CA  GLN A 168     -22.035  -6.020   8.155  1.00 30.94     0.177 C 
ENDROOT
BRANCH 155 156
ATOM    156  CB  GLN A 168     -23.054  -5.218   8.946  1.00 41.76     0.044 C 
BRANCH 156 157
ATOM    157  CG  GLN A 168     -24.466  -5.728   8.842  1.00 61.20     0.105 C 
BRANCH 157 158
ATOM    158  CD  GLN A 168     -24.569  -7.190   9.227  1.00 75.49     0.215 C 
ATOM    159  NE2 GLN A 168     -24.998  -8.022   8.277  1.00 85.00    -0.370 N 
ATOM    160  H06 GLN A 168     -25.090  -9.009   8.473  1.00 85.00     0.159 HD
ATOM    161  H07 GLN A 168     -25.231  -7.665   7.360  1.00 85.00     0.159 HD
ATOM    162  OE1 GLN A 168     -24.273  -7.573  10.368  1.00 73.64    -0.274 OA
ENDBRANCH 157 158
ENDBRANCH 156 157
ENDBRANCH 155 156
END_RES GLN A 168
ENDMDL
MODEL 6
REMARK VINA RESULT:      -6.1      1.785     11.077
REMARK  Name = human_CD1d_brij35_pred.rank_0
REMARK  79 active torsions:
REMARK  status: ('A' for Active; 'I' for Inactive)
REMARK    1  A    between atoms: O_2  and  C_23
REMARK    2  A    between atoms: O_2  and  C_25
REMARK    3  A    between atoms: C_3  and  C_5
REMARK    4  A    between atoms: O_4  and  C_27
REMARK    5  A    between atoms: O_4  and  C_29
REMARK    6  A    between atoms: C_5  and  C_7
REMARK    7  A    between atoms: O_6  and  C_31
REMARK    8  A    between atoms: O_6  and  C_33
REMARK    9  A    between atoms: C_7  and  C_9
REMARK   10  A    between atoms: O_8  and  C_35
REMARK   11  A    between atoms: O_8  and  C_37
REMARK   12  A    between atoms: C_9  and  C_11
REMARK   13  A    between atoms: O_10  and  C_39
REMARK   14  A    between atoms: O_10  and  C_41
REMARK   15  A    between atoms: C_11  and  C_13
REMARK   16  A    between atoms: O_12  and  C_43
REMARK   17  A    between atoms: O_12  and  C_45
REMARK   18  A    between atoms: C_13  and  C_15
REMARK   19  A    between atoms: O_14  and  C_47
REMARK   20  A    between atoms: O_14  and  C_49
REMARK   21  A    between atoms: C_15  and  C_17
REMARK   22  A    between atoms: O_16  and  C_50
REMARK   23  A    between atoms: O_16  and  C_51
REMARK   24  A    between atoms: C_17  and  C_19
REMARK   25  A    between atoms: O_18  and  C_52
REMARK   26  A    between atoms: O_18  and  C_53
REMARK   27  A    between atoms: C_19  and  C_21
REMARK   28  A    between atoms: O_20  and  C_54
REMARK   29  A    between atoms: O_20  and  C_55
REMARK   30  A    between atoms: C_21  and  C_23
REMARK   31  A    between atoms: O_22  and  C_56
REMARK   32  A    between atoms: O_22  and  C_57
REMARK   33  A    between atoms: O_24  and  C_58
REMARK   34  A    between atoms: O_24  and  C_59
REMARK   35  A    between atoms: C_25  and  C_27
REMARK   36  A    between atoms: O_26  and  C_60
REMARK   37  A    between atoms: O_26  and  C_61
REMARK   38  A    between atoms: O_28  and  C_62
REMARK   39  A    between atoms: O_28  and  C_63
REMARK   40  A    between atoms: C_29  and  C_31
REMARK   41  A    between atoms: O_30  and  C_64
REMARK   42  A    between atoms: O_30  and  C_65
REMARK   43  A    between atoms: O_32  and  C_66
REMARK   44  A    between atoms: O_32  and  C_67
REMARK   45  A    between atoms: C_33  and  C_35
REMARK   46  A    between atoms: O_34  and  C_68
REMARK   47  A    between atoms: O_34  and  C_69
REMARK   48  A    between atoms: O_36  and  C_70
REMARK   49  A    between atoms: O_36  and  C_71
REMARK   50  A    between atoms: C_37  and  C_39
REMARK   51  A    between atoms: O_38  and  C_72
REMARK   52  A    between atoms: O_38  and  C_73
REMARK   53  A    between atoms: O_40  and  C_74
REMARK   54  A    between atoms: O_40  and  C_75
REMARK   55  A    between atoms: C_41  and  C_43
REMARK   56  A    between atoms: O_42  and  C_76
REMARK   57  A    between atoms: O_42  and  C_77
REMARK   58  A    between atoms: O_44  and  C_78
REMARK   59  A    between atoms: O_44  and  C_79
REMARK   60  A    between atoms: C_45  and  C_47
REMARK   61  A    between atoms: O_46  and  C_80
REMARK   62  A    between atoms: O_46  and  C_81
REMARK   63  A    between atoms: C_49  and  C_50
REMARK   64  A    between atoms: C_51  and  C_52
REMARK   65  A    between atoms: C_53  and  C_54
REMARK   66  A    between atoms: C_55  and  C_56
REMARK   67  A    between atoms: C_57  and  C_58
REMARK   68  A    between atoms: C_59  and  C_60
REMARK   69  A    between atoms: C_61  and  C_62
REMARK   70  A    between atoms: C_63  and  C_64
REMARK   71  A    between atoms: C_65  and  C_66
REMARK   72  A    between atoms: C_67  and  C_68
REMARK   73  A    between atoms: C_69  and  C_70
REMARK   74  A    between atoms: C_71  and  C_72
REMARK   75  A    between atoms: C_73  and  C_74
REMARK   76  A    between atoms: C_75  and  C_76
REMARK   77  A    between atoms: C_77  and  C_78
REMARK   78  A    between atoms: C_79  and  C_80
REMARK   79  A    between atoms: C_81  and  C_82
REMARK                            x       y       z     vdW  Elec       q    Type
REMARK                         _______ _______ _______ _____ _____    ______ ____
ROOT
ATOM      1  C   UNL     1     -13.834  -0.445  11.369  0.00  0.00    +0.000 C 
ENDROOT
BRANCH   1   2
ATOM      2  C   UNL     1     -12.755  -1.231  12.096  0.00  0.00    +0.000 C 
BRANCH   2   3
ATOM      3  O   UNL     1     -13.331  -2.151  13.040  0.00  0.00    +0.000 OA
BRANCH   3   4
ATOM      4  C   UNL     1     -13.978  -1.425  14.096  0.00  0.00    +0.000 C 
BRANCH   4   5
ATOM      5  C   UNL     1     -12.978  -0.706  14.982  0.00  0.00    +0.000 C 
BRANCH   5   6
ATOM      6  O   UNL     1     -13.524  -0.656  16.317  0.00  0.00    +0.000 OA
BRANCH   6   7
ATOM      7  C   UNL     1     -13.488   0.643  16.902  0.00  0.00    +0.000 C 
BRANCH   7   8
ATOM      8  C   UNL     1     -12.034   1.056  17.177  0.00  0.00    +0.000 C 
BRANCH   8   9
ATOM      9  O   UNL     1     -11.911   1.584  18.513  0.00  0.00    +0.000 OA
BRANCH   9  10
ATOM     10  C   UNL     1     -11.442   2.918  18.542  0.00  0.00    +0.000 C 
BRANCH  10  11
ATOM     11  C   UNL     1     -11.130   3.369  19.995  0.00  0.00    +0.000 C 
BRANCH  11  12
ATOM     12  O   UNL     1      -9.773   3.780  20.087  0.00  0.00    +0.000 OA
BRANCH  12  13
ATOM     13  C   UNL     1      -9.353   4.268  21.355  0.00  0.00    +0.000 C 
BRANCH  13  14
ATOM     14  C   UNL     1     -10.558   4.979  22.031  0.00  0.00    +0.000 C 
BRANCH  14  15
ATOM     15  O   UNL     1     -10.366   6.404  22.118  0.00  0.00    +0.000 OA
BRANCH  15  16
ATOM     16  C   UNL     1     -11.366   7.123  22.791  0.00  0.00    +0.000 C 
BRANCH  16  17
ATOM     17  C   UNL     1     -12.491   7.385  21.811  0.00  0.00    +0.000 C 
BRANCH  17  18
ATOM     18  O   UNL     1     -13.723   7.692  22.482  0.00  0.00    +0.000 OA
BRANCH  18  19
ATOM     19  C   UNL     1     -14.293   8.908  22.103  0.00  0.00    +0.000 C 
BRANCH  19  20
ATOM     20  C   UNL     1     -14.679   9.720  23.328  0.00  0.00    +0.000 C 
BRANCH  20  21
ATOM     21  O   UNL     1     -13.544   9.855  24.170  0.00  0.00    +0.000 OA
BRANCH  21  22
ATOM     22  C   UNL     1     -13.889   9.648  25.507  0.00  0.00    +0.000 C 
BRANCH  22  23
ATOM     23  C   UNL     1     -12.807  10.273  26.397  0.00  0.00    +0.000 C 
BRANCH  23  24
ATOM     24  O   UNL     1     -12.115   9.256  27.102  0.00  0.00    +0.000 OA
BRANCH  24  25
ATOM     25  C   UNL     1     -12.099   9.487  28.509  0.00  0.00    +0.000 C 
BRANCH  25  26
ATOM     26  C   UNL     1     -10.828   8.817  29.081  0.00  0.00    +0.000 C 
BRANCH  26  27
ATOM     27  O   UNL     1     -10.954   7.401  28.946  0.00  0.00    +0.000 OA
BRANCH  27  28
ATOM     28  C   UNL     1      -9.727   6.744  28.742  0.00  0.00    +0.000 C 
BRANCH  28  29
ATOM     29  C   UNL     1      -8.771   7.551  27.905  0.00  0.00    +0.000 C 
BRANCH  29  30
ATOM     30  O   UNL     1      -8.805   7.104  26.583  0.00  0.00    +0.000 OA
BRANCH  30  31
ATOM     31  C   UNL     1      -7.578   7.280  25.901  0.00  0.00    +0.000 C 
BRANCH  31  32
ATOM     32  C   UNL     1      -7.708   6.708  24.506  0.00  0.00    +0.000 C 
BRANCH  32  33
ATOM     33  O   UNL     1      -6.919   7.477  23.635  0.00  0.00    +0.000 OA
BRANCH  33  34
ATOM     34  C   UNL     1      -5.575   7.491  23.983  0.00  0.00    +0.000 C 
BRANCH  34  35
ATOM     35  C   UNL     1      -4.943   6.175  23.578  0.00  0.00    +0.000 C 
BRANCH  35  36
ATOM     36  O   UNL     1      -3.638   6.421  23.071  0.00  0.00    +0.000 OA
BRANCH  36  37
ATOM     37  C   UNL     1      -2.669   6.385  24.095  0.00  0.00    +0.000 C 
BRANCH  37  38
ATOM     38  C   UNL     1      -1.765   7.624  23.968  0.00  0.00    +0.000 C 
BRANCH  38  39
ATOM     39  O   UNL     1      -0.488   7.152  23.624  0.00  0.00    +0.000 OA
BRANCH  39  40
ATOM     40  C   UNL     1       0.492   7.493  24.645  0.00  0.00    +0.000 C 
BRANCH  40  42
ATOM     41  O   UNL     1       1.896   9.432  24.423  0.00  0.00    +0.000 OA
ATOM     42  C   UNL     1       0.577   9.006  24.741  0.00  0.00    +0.000 C 
ENDBRANCH  40  42
ENDBRANCH  39  40
ENDBRANCH  38  39
ENDBRANCH  37  38
ENDBRANCH  36  37
ENDBRANCH  35  36
ENDBRANCH  34  35
ENDBRANCH  33  34
ENDBRANCH  32  33
ENDBRANCH  31  32
ENDBRANCH  30  31
ENDBRANCH  29  30
ENDBRANCH  28  29
ENDBRANCH  27  28
ENDBRANCH  26  27
ENDBRANCH  25  26
ENDBRANCH  24  25
ENDBRANCH  23  24
ENDBRANCH  22  23
ENDBRANCH  21  22
ENDBRANCH  20  21
ENDBRANCH  19  20
ENDBRANCH  18  19
ENDBRANCH  17  18
ENDBRANCH  16  17
ENDBRANCH  15  16
ENDBRANCH  14  15
ENDBRANCH  13  14
ENDBRANCH  12  13
ENDBRANCH  11  12
ENDBRANCH  10  11
ENDBRANCH   9  10
ENDBRANCH   8   9
ENDBRANCH   7   8
ENDBRANCH   6   7
ENDBRANCH   5   6
ENDBRANCH   4   5
ENDBRANCH   3   4
ENDBRANCH   2   3
ENDBRANCH   1   2
BRANCH   1  43
ATOM     43  O   UNL     1     -13.624   0.952  11.512  0.00  0.00    +0.000 OA
BRANCH  43  44
ATOM     44  C   UNL     1     -12.364   1.260  12.002  0.00  0.00    +0.000 C 
BRANCH  44  45
ATOM     45  C   UNL     1     -12.468   2.443  12.969  0.00  0.00    +0.000 C 
BRANCH  45  46
ATOM     46  O   UNL     1     -11.531   2.246  14.023  0.00  0.00    +0.000 OA
BRANCH  46  47
ATOM     47  C   UNL     1     -11.007   3.408  14.589  0.00  0.00    +0.000 C 
BRANCH  47  48
ATOM     48  C   UNL     1      -9.512   3.212  14.888  0.00  0.00    +0.000 C 
BRANCH  48  49
ATOM     49  O   UNL     1      -8.774   3.957  13.985  0.00  0.00    +0.000 OA
BRANCH  49  50
ATOM     50  C   UNL     1      -8.235   3.148  12.948  0.00  0.00    +0.000 C 
BRANCH  50  51
ATOM     51  C   UNL     1      -8.878   3.547  11.624  0.00  0.00    +0.000 C 
BRANCH  51  52
ATOM     52  O   UNL     1      -9.100   4.971  11.619  0.00  0.00    +0.000 OA
BRANCH  52  53
ATOM     53  C   UNL     1      -8.802   5.523  10.332  0.00  0.00    +0.000 C 
BRANCH  53  54
ATOM     54  C   UNL     1      -9.430   4.646   9.237  0.00  0.00    +0.000 C 
BRANCH  54  55
ATOM     55  O   UNL     1      -9.150   5.235   7.960  0.00  0.00    +0.000 OA
BRANCH  55  56
ATOM     56  C   UNL     1     -10.318   5.811   7.396  0.00  0.00    +0.000 C 
BRANCH  56  57
ATOM     57  C   UNL     1     -10.966   4.750   6.550  0.00  0.00    +0.000 C 
BRANCH  57  58
ATOM     58  O   UNL     1     -12.349   5.028   6.407  0.00  0.00    +0.000 OA
BRANCH  58  59
ATOM     59  C   UNL     1     -13.145   4.157   7.142  0.00  0.00    +0.000 C 
BRANCH  59  60
ATOM     60  C   UNL     1     -14.079   3.428   6.190  0.00  0.00    +0.000 C 
BRANCH  60  61
ATOM     61  O   UNL     1     -15.048   4.346   5.706  0.00  0.00    +0.000 OA
BRANCH  61  62
ATOM     62  C   UNL     1     -16.354   3.817   5.698  0.00  0.00    +0.000 C 
BRANCH  62  63
ATOM     63  C   UNL     1     -17.105   4.341   6.929  0.00  0.00    +0.000 C 
BRANCH  63  64
ATOM     64  O   UNL     1     -17.235   3.241   7.825  0.00  0.00    +0.000 OA
BRANCH  64  65
ATOM     65  C   UNL     1     -16.448   3.378   8.929  0.00  0.00    +0.000 C 
BRANCH  65  66
ATOM     66  C   UNL     1     -16.176   4.867   9.245  0.00  0.00    +0.000 C 
BRANCH  66  67
ATOM     67  O   UNL     1     -16.159   5.022  10.664  0.00  0.00    +0.000 OA
BRANCH  67  68
ATOM     68  C   UNL     1     -15.702   3.839  11.319  0.00  0.00    +0.000 C 
BRANCH  68  69
ATOM     69  C   UNL     1     -16.350   3.855  12.720  0.00  0.00    +0.000 C 
BRANCH  69  70
ATOM     70  O   UNL     1     -15.558   4.786  13.495  0.00  0.00    +0.000 OA
BRANCH  70  71
ATOM     71  C   UNL     1     -15.084   4.132  14.661  0.00  0.00    +0.000 C 
BRANCH  71  72
ATOM     72  C   UNL     1     -14.269   5.207  15.448  0.00  0.00    +0.000 C 
BRANCH  72  73
ATOM     73  C   UNL     1     -13.921   4.577  16.794  0.00  0.00    +0.000 C 
BRANCH  73  74
ATOM     74  C   UNL     1     -15.202   4.002  17.404  0.00  0.00    +0.000 C 
BRANCH  74  75
ATOM     75  C   UNL     1     -15.060   3.921  18.899  0.00  0.00    +0.000 C 
BRANCH  75  76
ATOM     76  C   UNL     1     -14.543   5.232  19.413  0.00  0.00    +0.000 C 
BRANCH  76  77
ATOM     77  C   UNL     1     -15.727   6.118  19.752  0.00  0.00    +0.000 C 
BRANCH  77  78
ATOM     78  C   UNL     1     -15.686   7.357  18.857  0.00  0.00    +0.000 C 
BRANCH  78  79
ATOM     79  C   UNL     1     -16.651   8.405  19.390  0.00  0.00    +0.000 C 
BRANCH  79  80
ATOM     80  C   UNL     1     -17.978   8.337  18.687  0.00  0.00    +0.000 C 
BRANCH  80  82
ATOM     81  C   UNL     1     -19.936   9.680  17.974  0.00  0.00    +0.000 C 
ATOM     82  C   UNL     1     -18.742   9.617  18.903  0.00  0.00    +0.000 C 
ENDBRANCH  80  82
ENDBRANCH  79  80
ENDBRANCH  78  79
ENDBRANCH  77  78
ENDBRANCH  76  77
ENDBRANCH  75  76
ENDBRANCH  74  75
ENDBRANCH  73  74
ENDBRANCH  72  73
ENDBRANCH  71  72
ENDBRANCH  70  71
ENDBRANCH  69  70
ENDBRANCH  68  69
ENDBRANCH  67  68
ENDBRANCH  66  67
ENDBRANCH  65  66
ENDBRANCH  64  65
ENDBRANCH  63  64
ENDBRANCH  62  63
ENDBRANCH  61  62
ENDBRANCH  60  61
ENDBRANCH  59  60
ENDBRANCH  58  59
ENDBRANCH  57  58
ENDBRANCH  56  57
ENDBRANCH  55  56
ENDBRANCH  54  55
ENDBRANCH  53  54
ENDBRANCH  52  53
ENDBRANCH  51  52
ENDBRANCH  50  51
ENDBRANCH  49  50
ENDBRANCH  48  49
ENDBRANCH  47  48
ENDBRANCH  46  47
ENDBRANCH  45  46
ENDBRANCH  44  45
ENDBRANCH  43  44
ENDBRANCH   1  43
TORSDOF 79
BEGIN_RES LEU A  10
REMARK  2 active torsions:
REMARK  status: ('A' for Active; 'I' for Inactive)
REMARK    1  A    between atoms: CA   and  CB  
REMARK    2  A    between atoms: CB   and  CG  
ROOT
ATOM      1  CA  LEU A  10     -10.775  -4.871   5.898  1.00 25.14     0.177 C 
ENDROOT
BRANCH   1   2
ATOM      2  CB  LEU A  10     -12.191  -4.387   6.226  1.00 17.87     0.038 C 
BRANCH   2   3
ATOM      3  CG  LEU A  10     -12.464  -2.929   5.851  1.00 24.95    -0.020 C 
ATOM      4  CD2 LEU A  10     -12.398  -2.090   7.082  1.00 26.38     0.009 C 
ATOM      5  CD1 LEU A  10     -13.818  -2.786   5.178  1.00 28.12     0.009 C 
ENDBRANCH   2   3
ENDBRANCH   1   2
END_RES LEU A  10
BEGIN_RES CYS A  12
REMARK  2 active torsions:
REMARK  status: ('A' for Active; 'I' for Inactive)
REMARK    3  A    between atoms: CA   and  CB  
REMARK    4  A    between atoms: CB   and  SG  
ROOT
ATOM      6  CA  CYS A  12      -8.555   0.470   8.750  1.00 23.16     0.185 C 
ENDROOT
BRANCH   6   7
ATOM      7  CB  CYS A  12      -9.828   0.763   9.555  1.00 20.43     0.105 C 
BRANCH   7   8
ATOM      8  SG  CYS A  12     -11.241   1.410   8.610  1.00 24.64    -0.180 SA
ATOM      9  H04 CYS A  12     -10.822   2.375   7.782  1.00 24.64     0.101 HD
ENDBRANCH   7   8
ENDBRANCH   6   7
END_RES CYS A  12
BEGIN_RES GLN A  14
REMARK  3 active torsions:
REMARK  status: ('A' for Active; 'I' for Inactive)
REMARK    5  A    between atoms: CA   and  CB  
REMARK    6  A    between atoms: CB   and  CG  
REMARK    7  A    between atoms: CG   and  CD  
REMARK       I    between atoms: CD   and  NE2 
ROOT
ATOM     10  CA  GLN A  14      -4.645   5.402  11.377  1.00 10.43     0.177 C 
ENDROOT
BRANCH  10  11
ATOM     11  CB  GLN A  14      -5.541   5.549  12.608  1.00 14.45     0.044 C 
BRANCH  11  12
ATOM     12  CG  GLN A  14      -6.416   6.781  12.591  1.00 13.74     0.105 C 
BRANCH  12  13
ATOM     13  CD  GLN A  14      -5.637   8.046  12.860  1.00 16.29     0.215 C 
ATOM     14  NE2 GLN A  14      -4.945   8.082  13.978  1.00  8.57    -0.370 N 
ATOM     15  H06 GLN A  14      -4.403   8.902  14.211  1.00  8.57     0.159 HD
ATOM     16  H07 GLN A  14      -4.955   7.289  14.604  1.00  8.57     0.159 HD
ATOM     17  OE1 GLN A  14      -5.655   8.978  12.071  1.00 23.55    -0.274 OA
ENDBRANCH  12  13
ENDBRANCH  11  12
ENDBRANCH  10  11
END_RES GLN A  14
BEGIN_RES SER A  16
REMARK  2 active torsions:
REMARK  status: ('A' for Active; 'I' for Inactive)
REMARK    8  A    between atoms: CA   and  CB  
REMARK    9  A    between atoms: CB   and  OG  
ROOT
ATOM     18  CA  SER A  16      -1.305  10.019  14.282  1.00  2.34     0.200 C 
ENDROOT
BRANCH  18  19
ATOM     19  CB  SER A  16      -2.242   9.935  15.479  1.00  3.12     0.199 C 
BRANCH  19  20
ATOM     20  OG  SER A  16      -1.957   8.779  16.247  1.00  1.00    -0.398 OA
ATOM     21  H04 SER A  16      -2.220   7.996  15.757  1.00  1.00     0.209 HD
ENDBRANCH  19  20
ENDBRANCH  18  19
END_RES SER A  16
BEGIN_RES LEU A  32
REMARK  2 active torsions:
REMARK  status: ('A' for Active; 'I' for Inactive)
REMARK   10  A    between atoms: CA   and  CB  
REMARK   11  A    between atoms: CB   and  CG  
ROOT
ATOM     22  CA  LEU A  32     -10.272  -4.106   1.587  1.00 16.16     0.177 C 
ENDROOT
BRANCH  22  23
ATOM     23  CB  LEU A  32     -11.613  -3.858   0.880  1.00 12.35     0.038 C 
BRANCH  23  24
ATOM     24  CG  LEU A  32     -12.596  -5.028   1.086  1.00  9.77    -0.020 C 
ATOM     25  CD1 LEU A  32     -13.017  -5.112   2.534  1.00  4.35     0.009 C 
ATOM     26  CD2 LEU A  32     -13.812  -4.869   0.212  1.00 10.60     0.009 C 
ENDBRANCH  23  24
ENDBRANCH  22  23
END_RES LEU A  32
BEGIN_RES HIS A  38
REMARK  2 active torsions:
REMARK  status: ('A' for Active; 'I' for Inactive)
REMARK   12  A    between atoms: CA   and  CB  
REMARK   13  A    between atoms: CB   and  CG  
ROOT
ATOM     27  CA  HIS A  38     -10.959   4.941   1.621  1.00 16.94     0.182 C 
ENDROOT
BRANCH  27  28
ATOM     28  CB  HIS A  38     -11.810   4.840   2.881  1.00 15.47     0.095 C 
BRANCH  28  29
ATOM     29  CG  HIS A  38     -13.082   4.079   2.691  1.00 18.62     0.053 A 
ATOM     30  CD2 HIS A  38     -14.288   4.470   2.212  1.00 15.06     0.116 A 
ATOM     31  NE2 HIS A  38     -15.101   3.365   2.223  1.00 18.12    -0.359 N 
ATOM     32  CE1 HIS A  38     -14.423   2.335   2.691  1.00 14.78     0.207 A 
ATOM     33  H06 HIS A  38     -16.065   3.344   1.921  1.00 18.12     0.166 HD
ATOM     34  ND1 HIS A  38     -13.202   2.738   2.982  1.00 16.58    -0.247 NA
ENDBRANCH  28  29
ENDBRANCH  27  28
END_RES HIS A  38
BEGIN_RES TRP A  63
REMARK  2 active torsions:
REMARK  status: ('A' for Active; 'I' for Inactive)
REMARK   14  A    between atoms: CA   and  CB  
REMARK   15  A    between atoms: CB   and  CG  
ROOT
ATOM     35  CA  TRP A  63     -22.437   6.257   6.543  1.00 27.04     0.181 C 
ENDROOT
BRANCH  35  36
ATOM     36  CB  TRP A  63     -22.360   6.642   5.068  1.00 31.37     0.075 C 
BRANCH  36  37
ATOM     37  CG  TRP A  63     -20.966   6.599   4.478  1.00 34.37    -0.028 A 
ATOM     38  CD2 TRP A  63     -20.269   7.665   3.820  1.00 33.79    -0.002 A 
ATOM     39  CE3 TRP A  63     -20.604   8.974   3.467  1.00 32.99     0.014 A 
ATOM     40  CE2 TRP A  63     -18.978   7.187   3.504  1.00 35.84     0.042 A 
ATOM     41  CZ3 TRP A  63     -19.658   9.755   2.819  1.00 32.93     0.001 A 
ATOM     42  CH2 TRP A  63     -18.382   9.250   2.518  1.00 39.24     0.002 A 
ATOM     43  CZ2 TRP A  63     -18.025   7.971   2.853  1.00 37.99     0.030 A 
ATOM     44  NE1 TRP A  63     -18.902   5.896   3.948  1.00 37.98    -0.365 N 
ATOM     45  H06 TRP A  63     -18.096   5.293   3.863  1.00 37.98     0.165 HD
ATOM     46  CD1 TRP A  63     -20.099   5.553   4.529  1.00 38.16     0.096 A 
ENDBRANCH  36  37
ENDBRANCH  35  36
END_RES TRP A  63
BEGIN_RES LEU A  66
REMARK  2 active torsions:
REMARK  status: ('A' for Active; 'I' for Inactive)
REMARK   16  A    between atoms: CA   and  CB  
REMARK   17  A    between atoms: CB   and  CG  
ROOT
ATOM     47  CA  LEU A  66     -20.004   6.489  11.120  1.00 10.90     0.177 C 
ENDROOT
BRANCH  47  48
ATOM     48  CB  LEU A  66     -19.626   5.453  10.069  1.00 13.57     0.038 C 
BRANCH  48  49
ATOM     49  CG  LEU A  66     -19.569   3.993  10.515  1.00  8.73    -0.020 C 
ATOM     50  CD1 LEU A  66     -19.936   3.867  11.971  1.00 14.23     0.009 C 
ATOM     51  CD2 LEU A  66     -20.528   3.196   9.669  1.00  1.92     0.009 C 
ENDBRANCH  48  49
ENDBRANCH  47  48
END_RES LEU A  66
BEGIN_RES PHE A  70
REMARK  2 active torsions:
REMARK  status: ('A' for Active; 'I' for Inactive)
REMARK   18  A    between atoms: CA   and  CB  
REMARK   19  A    between atoms: CB   and  CG  
ROOT
ATOM     52  CA  PHE A  70     -14.974   9.434  13.165  1.00  8.78     0.180 C 
ENDROOT
BRANCH  52  53
ATOM     53  CB  PHE A  70     -14.707   9.132  11.681  1.00  6.33     0.073 C 
BRANCH  53  54
ATOM     54  CG  PHE A  70     -13.926   7.865  11.459  1.00  3.42    -0.056 A 
ATOM     55  CD1 PHE A  70     -13.394   7.157  12.526  1.00 13.88     0.007 A 
ATOM     56  CE1 PHE A  70     -12.625   6.000  12.309  1.00 12.71     0.001 A 
ATOM     57  CZ  PHE A  70     -12.388   5.548  11.010  1.00  4.21     0.000 A 
ATOM     58  CE2 PHE A  70     -12.916   6.244   9.939  1.00  2.83     0.001 A 
ATOM     59  CD2 PHE A  70     -13.683   7.400  10.166  1.00  1.00     0.007 A 
ENDBRANCH  53  54
ENDBRANCH  52  53
END_RES PHE A  70
BEGIN_RES TYR A  73
REMARK  3 active torsions:
REMARK  status: ('A' for Active; 'I' for Inactive)
REMARK   20  A    between atoms: CA   and  CB  
REMARK   21  A    between atoms: CB   and  CG  
REMARK   22  A    between atoms: CZ   and  OH  
ROOT
ATOM     60  CA  TYR A  73     -13.212  10.166  17.260  1.00 12.17     0.180 C 
ENDROOT
BRANCH  60  61
ATOM     61  CB  TYR A  73     -13.301   8.846  16.517  1.00 12.84     0.073 C 
BRANCH  61  62
ATOM     62  CG  TYR A  73     -12.188   7.914  16.848  1.00 15.89    -0.056 A 
ATOM     63  CD1 TYR A  73     -11.991   7.471  18.137  1.00 16.00     0.010 A 
ATOM     64  CE1 TYR A  73     -10.931   6.623  18.455  1.00 13.55     0.037 A 
ATOM     65  CZ  TYR A  73     -10.064   6.221  17.458  1.00 18.13     0.065 A 
ATOM     66  CE2 TYR A  73     -10.239   6.648  16.163  1.00 15.89     0.037 A 
ATOM     67  CD2 TYR A  73     -11.301   7.492  15.864  1.00 21.86     0.010 A 
BRANCH  65  68
ATOM     68  OH  TYR A  73      -9.016   5.381  17.748  1.00 12.12    -0.361 OA
ATOM     69  H08 TYR A  73      -8.190   5.802  17.500  1.00 12.12     0.217 HD
ENDBRANCH  65  68
ENDBRANCH  61  62
ENDBRANCH  60  61
END_RES TYR A  73
BEGIN_RES PHE A  77
REMARK  2 active torsions:
REMARK  status: ('A' for Active; 'I' for Inactive)
REMARK   23  A    between atoms: CA   and  CB  
REMARK   24  A    between atoms: CB   and  CG  
ROOT
ATOM     70  CA  PHE A  77      -8.400  10.581  20.110  1.00 17.17     0.180 C 
ENDROOT
BRANCH  70  71
ATOM     71  CB  PHE A  77      -8.228   9.750  18.851  1.00 10.44     0.073 C 
BRANCH  71  72
ATOM     72  CG  PHE A  77      -7.417   8.509  19.054  1.00  6.07    -0.056 A 
ATOM     73  CD2 PHE A  77      -6.442   8.154  18.150  1.00  9.61     0.007 A 
ATOM     74  CE2 PHE A  77      -5.683   7.004  18.331  1.00  1.00     0.001 A 
ATOM     75  CZ  PHE A  77      -5.902   6.199  19.436  1.00  1.92     0.000 A 
ATOM     76  CE1 PHE A  77      -6.872   6.540  20.351  1.00  9.25     0.001 A 
ATOM     77  CD1 PHE A  77      -7.628   7.696  20.156  1.00  9.63     0.007 A 
ENDBRANCH  71  72
ENDBRANCH  70  71
END_RES PHE A  77
BEGIN_RES LEU A  96
REMARK  2 active torsions:
REMARK  status: ('A' for Active; 'I' for Inactive)
REMARK   25  A    between atoms: CA   and  CB  
REMARK   26  A    between atoms: CB   and  CG  
ROOT
ATOM     78  CA  LEU A  96       0.717   6.481  17.359  1.00 16.08     0.177 C 
ENDROOT
BRANCH  78  79
ATOM     79  CB  LEU A  96      -0.370   7.101  18.230  1.00 18.83     0.038 C 
BRANCH  79  80
ATOM     80  CG  LEU A  96      -0.218   6.828  19.726  1.00 19.03    -0.020 C 
ATOM     81  CD1 LEU A  96       0.382   8.047  20.386  1.00 28.17     0.009 C 
ATOM     82  CD2 LEU A  96      -1.566   6.558  20.353  1.00 22.01     0.009 C 
ENDBRANCH  79  80
ENDBRANCH  78  79
END_RES LEU A  96
BEGIN_RES VAL A  98
REMARK  1 active torsions:
REMARK  status: ('A' for Active; 'I' for Inactive)
REMARK   27  A    between atoms: CA   and  CB  
ROOT
ATOM     83  CA  VAL A  98      -3.928   2.082  14.897  1.00 19.83     0.180 C 
ENDROOT
BRANCH  83  84
ATOM     84  CB  VAL A  98      -5.203   2.807  15.281  1.00 17.87     0.009 C 
ATOM     85  CG2 VAL A  98      -4.880   4.002  16.140  1.00 29.90     0.012 C 
ATOM     86  CG1 VAL A  98      -6.127   1.855  16.010  1.00 14.79     0.012 C 
ENDBRANCH  83  84
END_RES VAL A  98
BEGIN_RES ASN A 112
REMARK  2 active torsions:
REMARK  status: ('A' for Active; 'I' for Inactive)
REMARK   28  A    between atoms: CA   and  CB  
REMARK   29  A    between atoms: CB   and  CG  
REMARK       I    between atoms: CG   and  ND2 
ROOT
ATOM     87  CA  ASN A 112     -11.790  -8.793  14.069  1.00 37.70     0.185 C 
ENDROOT
BRANCH  87  88
ATOM     88  CB  ASN A 112     -12.992  -7.945  14.465  1.00 26.24     0.137 C 
BRANCH  88  89
ATOM     89  CG  ASN A 112     -13.916  -8.644  15.436  1.00 21.77     0.217 C 
ATOM     90  ND2 ASN A 112     -13.568  -8.591  16.722  1.00  9.31    -0.370 N 
ATOM     91  H04 ASN A 112     -14.143  -9.041  17.420  1.00  9.31     0.159 HD
ATOM     92  H05 ASN A 112     -12.728  -8.101  16.997  1.00  9.31     0.159 HD
ATOM     93  OD1 ASN A 112     -14.930  -9.231  15.040  1.00 21.61    -0.274 OA
ENDBRANCH  88  89
ENDBRANCH  87  88
END_RES ASN A 112
BEGIN_RES PHE A 114
REMARK  2 active torsions:
REMARK  status: ('A' for Active; 'I' for Inactive)
REMARK   30  A    between atoms: CA   and  CB  
REMARK   31  A    between atoms: CB   and  CG  
ROOT
ATOM     94  CA  PHE A 114      -7.754  -3.619  17.012  1.00 26.06     0.180 C 
ENDROOT
BRANCH  94  95
ATOM     95  CB  PHE A 114      -8.890  -3.080  17.867  1.00 19.95     0.073 C 
BRANCH  95  96
ATOM     96  CG  PHE A 114      -8.716  -1.645  18.247  1.00 17.65    -0.056 A 
ATOM     97  CD1 PHE A 114      -8.654  -0.652  17.273  1.00 13.01     0.007 A 
ATOM     98  CE1 PHE A 114      -8.463   0.678  17.623  1.00  6.74     0.001 A 
ATOM     99  CZ  PHE A 114      -8.334   1.034  18.963  1.00  6.27     0.000 A 
ATOM    100  CE2 PHE A 114      -8.395   0.055  19.941  1.00 17.36     0.001 A 
ATOM    101  CD2 PHE A 114      -8.586  -1.283  19.581  1.00 18.39     0.007 A 
ENDBRANCH  95  96
ENDBRANCH  94  95
END_RES PHE A 114
BEGIN_RES VAL A 116
REMARK  1 active torsions:
REMARK  status: ('A' for Active; 'I' for Inactive)
REMARK   32  A    between atoms: CA   and  CB  
ROOT
ATOM    102  CA  VAL A 116      -2.467   0.283  18.565  1.00 13.48     0.180 C 
ENDROOT
BRANCH 102 103
ATOM    103  CB  VAL A 116      -3.101   1.238  19.599  1.00 20.86     0.009 C 
ATOM    104  CG1 VAL A 116      -2.193   2.455  19.795  1.00 25.01     0.012 C 
ATOM    105  CG2 VAL A 116      -4.493   1.644  19.174  1.00 25.34     0.012 C 
ENDBRANCH 102 103
END_RES VAL A 116
BEGIN_RES ILE A 123
REMARK  2 active torsions:
REMARK  status: ('A' for Active; 'I' for Inactive)
REMARK   33  A    between atoms: CA   and  CB  
REMARK   34  A    between atoms: CB   and  CG1 
ROOT
ATOM    106  CA  ILE A 123       1.557  -1.626  23.222  1.00 15.07     0.180 C 
ENDROOT
BRANCH 106 107
ATOM    107  CB  ILE A 123       1.697  -0.112  23.461  1.00 14.41     0.013 C 
ATOM    108  CG2 ILE A 123       3.147   0.234  23.752  1.00 18.35     0.012 C 
BRANCH 107 109
ATOM    109  CG1 ILE A 123       1.204   0.665  22.243  1.00 15.23     0.002 C 
ATOM    110  CD1 ILE A 123       0.346   1.857  22.592  1.00 14.67     0.005 C 
ENDBRANCH 107 109
ENDBRANCH 106 107
END_RES ILE A 123
BEGIN_RES LEU A 124
REMARK  2 active torsions:
REMARK  status: ('A' for Active; 'I' for Inactive)
REMARK   35  A    between atoms: CA   and  CB  
REMARK   36  A    between atoms: CB   and  CG  
ROOT
ATOM    111  CA  LEU A 124      -2.057  -2.686  23.524  1.00 11.86     0.177 C 
ENDROOT
BRANCH 111 112
ATOM    112  CB  LEU A 124      -2.698  -1.652  24.429  1.00 14.60     0.038 C 
BRANCH 112 113
ATOM    113  CG  LEU A 124      -2.561  -0.243  23.873  1.00 16.19    -0.020 C 
ATOM    114  CD1 LEU A 124      -3.901   0.180  23.241  1.00 22.07     0.009 C 
ATOM    115  CD2 LEU A 124      -2.140   0.695  24.977  1.00  9.12     0.009 C 
ENDBRANCH 112 113
ENDBRANCH 111 112
END_RES LEU A 124
BEGIN_RES PHE A 126
REMARK  2 active torsions:
REMARK  status: ('A' for Active; 'I' for Inactive)
REMARK   37  A    between atoms: CA   and  CB  
REMARK   38  A    between atoms: CB   and  CG  
ROOT
ATOM    116  CA  PHE A 126      -8.784  -4.792  22.233  1.00 23.15     0.180 C 
ENDROOT
BRANCH 116 117
ATOM    117  CB  PHE A 126      -9.823  -4.011  21.461  1.00 20.65     0.073 C 
BRANCH 117 118
ATOM    118  CG  PHE A 126     -10.966  -3.572  22.290  1.00 23.65    -0.056 A 
ATOM    119  CD2 PHE A 126     -10.804  -2.593  23.255  1.00 36.63     0.007 A 
ATOM    120  CE2 PHE A 126     -11.889  -2.177  24.038  1.00 36.27     0.001 A 
ATOM    121  CZ  PHE A 126     -13.138  -2.749  23.849  1.00 18.06     0.000 A 
ATOM    122  CE1 PHE A 126     -13.304  -3.724  22.886  1.00  5.50     0.001 A 
ATOM    123  CD1 PHE A 126     -12.220  -4.130  22.109  1.00 15.29     0.007 A 
ENDBRANCH 117 118
ENDBRANCH 116 117
END_RES PHE A 126
BEGIN_RES TRP A 131
REMARK  2 active torsions:
REMARK  status: ('A' for Active; 'I' for Inactive)
REMARK   39  A    between atoms: CA   and  CB  
REMARK   40  A    between atoms: CB   and  CG  
ROOT
ATOM    124  CA  TRP A 131      -8.096  -3.335  26.542  1.00 14.52     0.181 C 
ENDROOT
BRANCH 124 125
ATOM    125  CB  TRP A 131      -7.651  -1.877  26.607  1.00 13.06     0.075 C 
BRANCH 125 126
ATOM    126  CG  TRP A 131      -7.992  -1.068  25.375  1.00 16.97    -0.028 A 
ATOM    127  CD2 TRP A 131      -9.100  -0.177  25.222  1.00 11.34    -0.002 A 
ATOM    128  CE2 TRP A 131      -9.030   0.365  23.923  1.00  5.87     0.042 A 
ATOM    129  CE3 TRP A 131     -10.149   0.214  26.062  1.00  3.80     0.014 A 
ATOM    130  CZ2 TRP A 131      -9.968   1.282  23.445  1.00  1.35     0.030 A 
ATOM    131  NE1 TRP A 131      -7.930  -0.172  23.312  1.00 13.90    -0.365 N 
ATOM    132  CH2 TRP A 131     -10.985   1.649  24.291  1.00  1.00     0.002 A 
ATOM    133  CZ3 TRP A 131     -11.082   1.120  25.592  1.00  1.00     0.001 A 
ATOM    134  CD1 TRP A 131      -7.311  -1.031  24.190  1.00 17.22     0.096 A 
ATOM    135  H07 TRP A 131      -7.623   0.030  22.372  1.00 13.90     0.165 HD
ENDBRANCH 125 126
ENDBRANCH 124 125
END_RES TRP A 131
BEGIN_RES LEU A 148
REMARK  2 active torsions:
REMARK  status: ('A' for Active; 'I' for Inactive)
REMARK   41  A    between atoms: CA   and  CB  
REMARK   42  A    between atoms: CB   and  CG  
ROOT
ATOM    136  CA  LEU A 148      -9.018   3.259  29.295  1.00 16.99     0.177 C 
ENDROOT
BRANCH 136 137
ATOM    137  CB  LEU A 148      -8.166   2.574  28.236  1.00  6.39     0.038 C 
BRANCH 137 138
ATOM    138  CG  LEU A 148      -7.664   3.333  27.025  1.00  1.00    -0.020 C 
ATOM    139  CD2 LEU A 148      -8.818   3.779  26.175  1.00  1.00     0.009 C 
ATOM    140  CD1 LEU A 148      -6.744   2.418  26.238  1.00  2.71     0.009 C 
ENDBRANCH 137 138
ENDBRANCH 136 137
END_RES LEU A 148
BEGIN_RES THR A 154
REMARK  2 active torsions:
REMARK  status: ('A' for Active; 'I' for Inactive)
REMARK   43  A    between atoms: CA   and  CB  
REMARK   44  A    between atoms: CB   and  OG1 
ROOT
ATOM    141  CA  THR A 154     -15.990   3.959  24.426  1.00 20.45     0.205 C 
ENDROOT
BRANCH 141 142
ATOM    142  CB  THR A 154     -14.777   4.829  24.694  1.00 16.79     0.146 C 
ATOM    143  CG2 THR A 154     -13.601   4.358  23.861  1.00 20.24     0.042 C 
BRANCH 142 144
ATOM    144  OG1 THR A 154     -15.087   6.181  24.335  1.00 18.84    -0.393 OA
ATOM    145  H06 THR A 154     -15.228   6.700  25.130  1.00 18.84     0.210 HD
ENDBRANCH 142 144
ENDBRANCH 141 142
END_RES THR A 154
BEGIN_RES VAL A 158
REMARK  1 active torsions:
REMARK  status: ('A' for Active; 'I' for Inactive)
REMARK   45  A    between atoms: CA   and  CB  
ROOT
ATOM    146  CA  VAL A 158     -15.487  -0.189  19.892  1.00 15.49     0.180 C 
ENDROOT
BRANCH 146 147
ATOM    147  CB  VAL A 158     -14.291  -0.273  20.822  1.00  6.52     0.009 C 
ATOM    148  CG1 VAL A 158     -13.203  -1.135  20.224  1.00  1.00     0.012 C 
ATOM    149  CG2 VAL A 158     -13.786   1.113  21.081  1.00  5.99     0.012 C 
ENDBRANCH 146 147
END_RES VAL A 158
BEGIN_RES LEU A 161
REMARK  2 active torsions:
REMARK  status: ('A' for Active; 'I' for Inactive)
REMARK   46  A    between atoms: CA   and  CB  
REMARK   47  A    between atoms: CB   and  CG  
ROOT
ATOM    150  CA  LEU A 161     -18.031  -1.858  15.935  1.00 13.31     0.177 C 
ENDROOT
BRANCH 150 151
ATOM    151  CB  LEU A 161     -17.046  -0.706  16.001  1.00 14.13     0.038 C 
BRANCH 151 152
ATOM    152  CG  LEU A 161     -17.397   0.529  15.181  1.00 19.39    -0.020 C 
ATOM    153  CD2 LEU A 161     -16.238   0.912  14.291  1.00 27.75     0.009 C 
ATOM    154  CD1 LEU A 161     -17.721   1.660  16.119  1.00 18.59     0.009 C 
ENDBRANCH 151 152
ENDBRANCH 150 151
END_RES LEU A 161
BEGIN_RES GLN A 168
REMARK  3 active torsions:
REMARK  status: ('A' for Active; 'I' for Inactive)
REMARK   48  A    between atoms: CA   and  CB  
REMARK   49  A    between atoms: CB   and  CG  
REMARK   50  A    between atoms: CG   and  CD  
REMARK       I    between atoms: CD   and  NE2 
ROOT
ATOM    155  CA  GLN A 168     -22.035  -6.020   8.155  1.00 30.94     0.177 C 
ENDROOT
BRANCH 155 156
ATOM    156  CB  GLN A 168     -23.054  -5.218   8.946  1.00 41.76     0.044 C 
BRANCH 156 157
ATOM    157  CG  GLN A 168     -24.350  -5.937   9.204  1.00 61.20     0.105 C 
BRANCH 157 158
ATOM    158  CD  GLN A 168     -24.739  -5.895  10.669  1.00 75.49     0.215 C 
ATOM    159  NE2 GLN A 168     -24.049  -5.050  11.438  1.00 85.00    -0.370 N 
ATOM    160  H06 GLN A 168     -24.259  -4.978  12.423  1.00 85.00     0.159 HD
ATOM    161  H07 GLN A 168     -23.316  -4.484  11.034  1.00 85.00     0.159 HD
ATOM    162  OE1 GLN A 168     -25.645  -6.615  11.111  1.00 73.64    -0.274 OA
ENDBRANCH 157 158
ENDBRANCH 156 157
ENDBRANCH 155 156
END_RES GLN A 168
ENDMDL
MODEL 7
REMARK VINA RESULT:      -6.1      1.435      2.792
REMARK  Name = human_CD1d_brij35_pred.rank_0
REMARK  79 active torsions:
REMARK  status: ('A' for Active; 'I' for Inactive)
REMARK    1  A    between atoms: O_2  and  C_23
REMARK    2  A    between atoms: O_2  and  C_25
REMARK    3  A    between atoms: C_3  and  C_5
REMARK    4  A    between atoms: O_4  and  C_27
REMARK    5  A    between atoms: O_4  and  C_29
REMARK    6  A    between atoms: C_5  and  C_7
REMARK    7  A    between atoms: O_6  and  C_31
REMARK    8  A    between atoms: O_6  and  C_33
REMARK    9  A    between atoms: C_7  and  C_9
REMARK   10  A    between atoms: O_8  and  C_35
REMARK   11  A    between atoms: O_8  and  C_37
REMARK   12  A    between atoms: C_9  and  C_11
REMARK   13  A    between atoms: O_10  and  C_39
REMARK   14  A    between atoms: O_10  and  C_41
REMARK   15  A    between atoms: C_11  and  C_13
REMARK   16  A    between atoms: O_12  and  C_43
REMARK   17  A    between atoms: O_12  and  C_45
REMARK   18  A    between atoms: C_13  and  C_15
REMARK   19  A    between atoms: O_14  and  C_47
REMARK   20  A    between atoms: O_14  and  C_49
REMARK   21  A    between atoms: C_15  and  C_17
REMARK   22  A    between atoms: O_16  and  C_50
REMARK   23  A    between atoms: O_16  and  C_51
REMARK   24  A    between atoms: C_17  and  C_19
REMARK   25  A    between atoms: O_18  and  C_52
REMARK   26  A    between atoms: O_18  and  C_53
REMARK   27  A    between atoms: C_19  and  C_21
REMARK   28  A    between atoms: O_20  and  C_54
REMARK   29  A    between atoms: O_20  and  C_55
REMARK   30  A    between atoms: C_21  and  C_23
REMARK   31  A    between atoms: O_22  and  C_56
REMARK   32  A    between atoms: O_22  and  C_57
REMARK   33  A    between atoms: O_24  and  C_58
REMARK   34  A    between atoms: O_24  and  C_59
REMARK   35  A    between atoms: C_25  and  C_27
REMARK   36  A    between atoms: O_26  and  C_60
REMARK   37  A    between atoms: O_26  and  C_61
REMARK   38  A    between atoms: O_28  and  C_62
REMARK   39  A    between atoms: O_28  and  C_63
REMARK   40  A    between atoms: C_29  and  C_31
REMARK   41  A    between atoms: O_30  and  C_64
REMARK   42  A    between atoms: O_30  and  C_65
REMARK   43  A    between atoms: O_32  and  C_66
REMARK   44  A    between atoms: O_32  and  C_67
REMARK   45  A    between atoms: C_33  and  C_35
REMARK   46  A    between atoms: O_34  and  C_68
REMARK   47  A    between atoms: O_34  and  C_69
REMARK   48  A    between atoms: O_36  and  C_70
REMARK   49  A    between atoms: O_36  and  C_71
REMARK   50  A    between atoms: C_37  and  C_39
REMARK   51  A    between atoms: O_38  and  C_72
REMARK   52  A    between atoms: O_38  and  C_73
REMARK   53  A    between atoms: O_40  and  C_74
REMARK   54  A    between atoms: O_40  and  C_75
REMARK   55  A    between atoms: C_41  and  C_43
REMARK   56  A    between atoms: O_42  and  C_76
REMARK   57  A    between atoms: O_42  and  C_77
REMARK   58  A    between atoms: O_44  and  C_78
REMARK   59  A    between atoms: O_44  and  C_79
REMARK   60  A    between atoms: C_45  and  C_47
REMARK   61  A    between atoms: O_46  and  C_80
REMARK   62  A    between atoms: O_46  and  C_81
REMARK   63  A    between atoms: C_49  and  C_50
REMARK   64  A    between atoms: C_51  and  C_52
REMARK   65  A    between atoms: C_53  and  C_54
REMARK   66  A    between atoms: C_55  and  C_56
REMARK   67  A    between atoms: C_57  and  C_58
REMARK   68  A    between atoms: C_59  and  C_60
REMARK   69  A    between atoms: C_61  and  C_62
REMARK   70  A    between atoms: C_63  and  C_64
REMARK   71  A    between atoms: C_65  and  C_66
REMARK   72  A    between atoms: C_67  and  C_68
REMARK   73  A    between atoms: C_69  and  C_70
REMARK   74  A    between atoms: C_71  and  C_72
REMARK   75  A    between atoms: C_73  and  C_74
REMARK   76  A    between atoms: C_75  and  C_76
REMARK   77  A    between atoms: C_77  and  C_78
REMARK   78  A    between atoms: C_79  and  C_80
REMARK   79  A    between atoms: C_81  and  C_82
REMARK                            x       y       z     vdW  Elec       q    Type
REMARK                         _______ _______ _______ _____ _____    ______ ____
ROOT
ATOM      1  C   UNL     1     -12.455   4.135  19.074  0.00  0.00    +0.000 C 
ENDROOT
BRANCH   1   2
ATOM      2  C   UNL     1     -11.499   3.408  18.142  0.00  0.00    +0.000 C 
BRANCH   2   3
ATOM      3  O   UNL     1     -11.648   3.864  16.786  0.00  0.00    +0.000 OA
BRANCH   3   4
ATOM      4  C   UNL     1     -10.757   3.136  15.926  0.00  0.00    +0.000 C 
BRANCH   4   5
ATOM      5  C   UNL     1     -10.928   3.533  14.472  0.00  0.00    +0.000 C 
BRANCH   5   6
ATOM      6  O   UNL     1     -10.670   2.367  13.661  0.00  0.00    +0.000 OA
BRANCH   6   7
ATOM      7  C   UNL     1      -9.466   2.453  12.902  0.00  0.00    +0.000 C 
BRANCH   7   8
ATOM      8  C   UNL     1      -9.308   3.867  12.325  0.00  0.00    +0.000 C 
BRANCH   8   9
ATOM      9  O   UNL     1      -8.736   3.804  11.003  0.00  0.00    +0.000 OA
BRANCH   9  10
ATOM     10  C   UNL     1      -9.164   4.858  10.162  0.00  0.00    +0.000 C 
BRANCH  10  11
ATOM     11  C   UNL     1      -9.433   4.347   8.720  0.00  0.00    +0.000 C 
BRANCH  11  12
ATOM     12  O   UNL     1      -9.374   5.436   7.808  0.00  0.00    +0.000 OA
BRANCH  12  13
ATOM     13  C   UNL     1     -10.592   5.763   7.149  0.00  0.00    +0.000 C 
BRANCH  13  14
ATOM     14  C   UNL     1     -11.455   4.476   7.044  0.00  0.00    +0.000 C 
BRANCH  14  15
ATOM     15  O   UNL     1     -12.657   4.691   6.281  0.00  0.00    +0.000 OA
BRANCH  15  16
ATOM     16  C   UNL     1     -13.815   4.057   6.758  0.00  0.00    +0.000 C 
BRANCH  16  17
ATOM     17  C   UNL     1     -14.866   5.120   6.996  0.00  0.00    +0.000 C 
BRANCH  17  18
ATOM     18  O   UNL     1     -16.127   4.549   7.376  0.00  0.00    +0.000 OA
BRANCH  18  19
ATOM     19  C   UNL     1     -16.241   3.184   7.107  0.00  0.00    +0.000 C 
BRANCH  19  20
ATOM     20  C   UNL     1     -17.423   2.590   7.855  0.00  0.00    +0.000 C 
BRANCH  20  21
ATOM     21  O   UNL     1     -17.096   1.272   8.266  0.00  0.00    +0.000 OA
BRANCH  21  22
ATOM     22  C   UNL     1     -17.969   0.831   9.263  0.00  0.00    +0.000 C 
BRANCH  22  23
ATOM     23  C   UNL     1     -17.303  -0.323  10.024  0.00  0.00    +0.000 C 
BRANCH  23  24
ATOM     24  O   UNL     1     -16.051  -0.631   9.434  0.00  0.00    +0.000 OA
BRANCH  24  25
ATOM     25  C   UNL     1     -15.030  -0.837  10.409  0.00  0.00    +0.000 C 
BRANCH  25  26
ATOM     26  C   UNL     1     -14.652   0.543  10.994  0.00  0.00    +0.000 C 
BRANCH  26  27
ATOM     27  O   UNL     1     -14.359   1.435   9.917  0.00  0.00    +0.000 OA
BRANCH  27  28
ATOM     28  C   UNL     1     -14.610   2.785  10.221  0.00  0.00    +0.000 C 
BRANCH  28  29
ATOM     29  C   UNL     1     -15.732   2.957  11.210  0.00  0.00    +0.000 C 
BRANCH  29  30
ATOM     30  O   UNL     1     -15.991   4.315  11.402  0.00  0.00    +0.000 OA
BRANCH  30  31
ATOM     31  C   UNL     1     -16.073   4.681  12.766  0.00  0.00    +0.000 C 
BRANCH  31  32
ATOM     32  C   UNL     1     -15.367   3.631  13.597  0.00  0.00    +0.000 C 
BRANCH  32  33
ATOM     33  O   UNL     1     -15.900   3.660  14.896  0.00  0.00    +0.000 OA
BRANCH  33  34
ATOM     34  C   UNL     1     -14.929   3.593  15.886  0.00  0.00    +0.000 C 
BRANCH  34  35
ATOM     35  C   UNL     1     -15.521   2.942  17.120  0.00  0.00    +0.000 C 
BRANCH  35  36
ATOM     36  O   UNL     1     -14.707   1.841  17.502  0.00  0.00    +0.000 OA
BRANCH  36  37
ATOM     37  C   UNL     1     -13.978   1.331  16.409  0.00  0.00    +0.000 C 
BRANCH  37  38
ATOM     38  C   UNL     1     -13.018   0.241  16.917  0.00  0.00    +0.000 C 
BRANCH  38  39
ATOM     39  O   UNL     1     -12.612  -0.491  15.789  0.00  0.00    +0.000 OA
BRANCH  39  40
ATOM     40  C   UNL     1     -13.373  -0.105  14.610  0.00  0.00    +0.000 C 
BRANCH  40  42
ATOM     41  O   UNL     1     -12.670  -1.765  13.018  0.00  0.00    +0.000 OA
ATOM     42  C   UNL     1     -13.751  -1.364  13.851  0.00  0.00    +0.000 C 
ENDBRANCH  40  42
ENDBRANCH  39  40
ENDBRANCH  38  39
ENDBRANCH  37  38
ENDBRANCH  36  37
ENDBRANCH  35  36
ENDBRANCH  34  35
ENDBRANCH  33  34
ENDBRANCH  32  33
ENDBRANCH  31  32
ENDBRANCH  30  31
ENDBRANCH  29  30
ENDBRANCH  28  29
ENDBRANCH  27  28
ENDBRANCH  26  27
ENDBRANCH  25  26
ENDBRANCH  24  25
ENDBRANCH  23  24
ENDBRANCH  22  23
ENDBRANCH  21  22
ENDBRANCH  20  21
ENDBRANCH  19  20
ENDBRANCH  18  19
ENDBRANCH  17  18
ENDBRANCH  16  17
ENDBRANCH  15  16
ENDBRANCH  14  15
ENDBRANCH  13  14
ENDBRANCH  12  13
ENDBRANCH  11  12
ENDBRANCH  10  11
ENDBRANCH   9  10
ENDBRANCH   8   9
ENDBRANCH   7   8
ENDBRANCH   6   7
ENDBRANCH   5   6
ENDBRANCH   4   5
ENDBRANCH   3   4
ENDBRANCH   2   3
ENDBRANCH   1   2
BRANCH   1  43
ATOM     43  O   UNL     1     -11.886   4.282  20.367  0.00  0.00    +0.000 OA
BRANCH  43  44
ATOM     44  C   UNL     1     -12.016   5.569  20.868  0.00  0.00    +0.000 C 
BRANCH  44  45
ATOM     45  C   UNL     1     -10.701   5.995  21.527  0.00  0.00    +0.000 C 
BRANCH  45  46
ATOM     46  O   UNL     1     -11.007   6.725  22.711  0.00  0.00    +0.000 OA
BRANCH  46  47
ATOM     47  C   UNL     1     -12.127   7.552  22.637  0.00  0.00    +0.000 C 
BRANCH  47  48
ATOM     48  C   UNL     1     -12.435   8.135  24.025  0.00  0.00    +0.000 C 
BRANCH  48  49
ATOM     49  O   UNL     1     -13.748   8.571  24.045  0.00  0.00    +0.000 OA
BRANCH  49  50
ATOM     50  C   UNL     1     -13.957   9.575  25.029  0.00  0.00    +0.000 C 
BRANCH  50  51
ATOM     51  C   UNL     1     -13.135  10.806  24.664  0.00  0.00    +0.000 C 
BRANCH  51  52
ATOM     52  O   UNL     1     -12.789  11.516  25.870  0.00  0.00    +0.000 OA
BRANCH  52  53
ATOM     53  C   UNL     1     -12.530  10.599  26.938  0.00  0.00    +0.000 C 
BRANCH  53  54
ATOM     54  C   UNL     1     -11.851  11.340  28.100  0.00  0.00    +0.000 C 
BRANCH  54  55
ATOM     55  O   UNL     1     -11.710  12.722  27.745  0.00  0.00    +0.000 OA
BRANCH  55  56
ATOM     56  C   UNL     1     -11.231  13.486  28.840  0.00  0.00    +0.000 C 
BRANCH  56  57
ATOM     57  C   UNL     1      -9.834  13.921  28.495  0.00  0.00    +0.000 C 
BRANCH  57  58
ATOM     58  O   UNL     1      -8.900  13.220  29.300  0.00  0.00    +0.000 OA
BRANCH  58  59
ATOM     59  C   UNL     1      -7.960  12.530  28.543  0.00  0.00    +0.000 C 
BRANCH  59  60
ATOM     60  C   UNL     1      -8.156  11.038  28.762  0.00  0.00    +0.000 C 
BRANCH  60  61
ATOM     61  O   UNL     1      -8.916  10.845  29.945  0.00  0.00    +0.000 OA
BRANCH  61  62
ATOM     62  C   UNL     1      -8.852   9.525  30.433  0.00  0.00    +0.000 C 
BRANCH  62  63
ATOM     63  C   UNL     1      -9.903   8.678  29.703  0.00  0.00    +0.000 C 
BRANCH  63  64
ATOM     64  O   UNL     1      -9.197   7.627  29.051  0.00  0.00    +0.000 OA
BRANCH  64  65
ATOM     65  C   UNL     1      -9.419   7.611  27.708  0.00  0.00    +0.000 C 
BRANCH  65  66
ATOM     66  C   UNL     1      -8.089   7.618  26.918  0.00  0.00    +0.000 C 
BRANCH  66  67
ATOM     67  O   UNL     1      -8.319   6.987  25.658  0.00  0.00    +0.000 OA
BRANCH  67  68
ATOM     68  C   UNL     1      -7.190   7.109  24.793  0.00  0.00    +0.000 C 
BRANCH  68  69
ATOM     69  C   UNL     1      -7.361   6.012  23.720  0.00  0.00    +0.000 C 
BRANCH  69  70
ATOM     70  O   UNL     1      -6.017   5.668  23.311  0.00  0.00    +0.000 OA
BRANCH  70  71
ATOM     71  C   UNL     1      -5.139   6.722  23.669  0.00  0.00    +0.000 C 
BRANCH  71  72
ATOM     72  C   UNL     1      -3.721   6.277  23.187  0.00  0.00    +0.000 C 
BRANCH  72  73
ATOM     73  C   UNL     1      -3.941   5.078  22.269  0.00  0.00    +0.000 C 
BRANCH  73  74
ATOM     74  C   UNL     1      -2.803   4.080  22.496  0.00  0.00    +0.000 C 
BRANCH  74  75
ATOM     75  C   UNL     1      -2.309   4.186  23.913  0.00  0.00    +0.000 C 
BRANCH  75  76
ATOM     76  C   UNL     1      -0.813   4.076  23.918  0.00  0.00    +0.000 C 
BRANCH  76  77
ATOM     77  C   UNL     1      -0.334   4.090  25.357  0.00  0.00    +0.000 C 
BRANCH  77  78
ATOM     78  C   UNL     1      -0.955   5.292  26.071  0.00  0.00    +0.000 C 
BRANCH  78  79
ATOM     79  C   UNL     1       0.027   6.453  26.065  0.00  0.00    +0.000 C 
BRANCH  79  80
ATOM     80  C   UNL     1      -0.287   7.434  24.969  0.00  0.00    +0.000 C 
BRANCH  80  82
ATOM     81  C   UNL     1       1.223   9.291  24.328  0.00  0.00    +0.000 C 
ATOM     82  C   UNL     1       0.972   7.802  24.229  0.00  0.00    +0.000 C 
ENDBRANCH  80  82
ENDBRANCH  79  80
ENDBRANCH  78  79
ENDBRANCH  77  78
ENDBRANCH  76  77
ENDBRANCH  75  76
ENDBRANCH  74  75
ENDBRANCH  73  74
ENDBRANCH  72  73
ENDBRANCH  71  72
ENDBRANCH  70  71
ENDBRANCH  69  70
ENDBRANCH  68  69
ENDBRANCH  67  68
ENDBRANCH  66  67
ENDBRANCH  65  66
ENDBRANCH  64  65
ENDBRANCH  63  64
ENDBRANCH  62  63
ENDBRANCH  61  62
ENDBRANCH  60  61
ENDBRANCH  59  60
ENDBRANCH  58  59
ENDBRANCH  57  58
ENDBRANCH  56  57
ENDBRANCH  55  56
ENDBRANCH  54  55
ENDBRANCH  53  54
ENDBRANCH  52  53
ENDBRANCH  51  52
ENDBRANCH  50  51
ENDBRANCH  49  50
ENDBRANCH  48  49
ENDBRANCH  47  48
ENDBRANCH  46  47
ENDBRANCH  45  46
ENDBRANCH  44  45
ENDBRANCH  43  44
ENDBRANCH   1  43
TORSDOF 79
BEGIN_RES LEU A  10
REMARK  2 active torsions:
REMARK  status: ('A' for Active; 'I' for Inactive)
REMARK    1  A    between atoms: CA   and  CB  
REMARK    2  A    between atoms: CB   and  CG  
ROOT
ATOM      1  CA  LEU A  10     -10.775  -4.871   5.898  1.00 25.14     0.177 C 
ENDROOT
BRANCH   1   2
ATOM      2  CB  LEU A  10     -12.191  -4.387   6.226  1.00 17.87     0.038 C 
BRANCH   2   3
ATOM      3  CG  LEU A  10     -12.895  -3.664   5.076  1.00 24.95    -0.020 C 
ATOM      4  CD2 LEU A  10     -13.153  -4.636   3.975  1.00 26.38     0.009 C 
ATOM      5  CD1 LEU A  10     -12.059  -2.498   4.575  1.00 28.12     0.009 C 
ENDBRANCH   2   3
ENDBRANCH   1   2
END_RES LEU A  10
BEGIN_RES CYS A  12
REMARK  2 active torsions:
REMARK  status: ('A' for Active; 'I' for Inactive)
REMARK    3  A    between atoms: CA   and  CB  
REMARK    4  A    between atoms: CB   and  SG  
ROOT
ATOM      6  CA  CYS A  12      -8.555   0.470   8.750  1.00 23.16     0.185 C 
ENDROOT
BRANCH   6   7
ATOM      7  CB  CYS A  12      -9.828   0.763   9.555  1.00 20.43     0.105 C 
BRANCH   7   8
ATOM      8  SG  CYS A  12     -11.358   0.956   8.590  1.00 24.64    -0.180 SA
ATOM      9  H04 CYS A  12     -11.060   1.016   7.286  1.00 24.64     0.101 HD
ENDBRANCH   7   8
ENDBRANCH   6   7
END_RES CYS A  12
BEGIN_RES GLN A  14
REMARK  3 active torsions:
REMARK  status: ('A' for Active; 'I' for Inactive)
REMARK    5  A    between atoms: CA   and  CB  
REMARK    6  A    between atoms: CB   and  CG  
REMARK    7  A    between atoms: CG   and  CD  
REMARK       I    between atoms: CD   and  NE2 
ROOT
ATOM     10  CA  GLN A  14      -4.645   5.402  11.377  1.00 10.43     0.177 C 
ENDROOT
BRANCH  10  11
ATOM     11  CB  GLN A  14      -5.541   5.549  12.608  1.00 14.45     0.044 C 
BRANCH  11  12
ATOM     12  CG  GLN A  14      -5.635   6.961  13.138  1.00 13.74     0.105 C 
BRANCH  12  13
ATOM     13  CD  GLN A  14      -6.183   7.927  12.115  1.00 16.29     0.215 C 
ATOM     14  NE2 GLN A  14      -7.139   7.472  11.333  1.00  8.57    -0.370 N 
ATOM     15  H06 GLN A  14      -7.545   8.073  10.630  1.00  8.57     0.159 HD
ATOM     16  H07 GLN A  14      -7.466   6.522  11.435  1.00  8.57     0.159 HD
ATOM     17  OE1 GLN A  14      -5.755   9.067  12.031  1.00 23.55    -0.274 OA
ENDBRANCH  12  13
ENDBRANCH  11  12
ENDBRANCH  10  11
END_RES GLN A  14
BEGIN_RES SER A  16
REMARK  2 active torsions:
REMARK  status: ('A' for Active; 'I' for Inactive)
REMARK    8  A    between atoms: CA   and  CB  
REMARK    9  A    between atoms: CB   and  OG  
ROOT
ATOM     18  CA  SER A  16      -1.305  10.019  14.282  1.00  2.34     0.200 C 
ENDROOT
BRANCH  18  19
ATOM     19  CB  SER A  16      -2.242   9.935  15.479  1.00  3.12     0.199 C 
BRANCH  19  20
ATOM     20  OG  SER A  16      -3.450   9.291  15.115  1.00  1.00    -0.398 OA
ATOM     21  H04 SER A  16      -4.110   9.951  14.891  1.00  1.00     0.209 HD
ENDBRANCH  19  20
ENDBRANCH  18  19
END_RES SER A  16
BEGIN_RES LEU A  32
REMARK  2 active torsions:
REMARK  status: ('A' for Active; 'I' for Inactive)
REMARK   10  A    between atoms: CA   and  CB  
REMARK   11  A    between atoms: CB   and  CG  
ROOT
ATOM     22  CA  LEU A  32     -10.272  -4.106   1.587  1.00 16.16     0.177 C 
ENDROOT
BRANCH  22  23
ATOM     23  CB  LEU A  32     -11.613  -3.858   0.880  1.00 12.35     0.038 C 
BRANCH  23  24
ATOM     24  CG  LEU A  32     -12.540  -5.088   0.959  1.00  9.77    -0.020 C 
ATOM     25  CD1 LEU A  32     -13.971  -4.685   0.695  1.00  4.35     0.009 C 
ATOM     26  CD2 LEU A  32     -12.118  -6.142  -0.031  1.00 10.60     0.009 C 
ENDBRANCH  23  24
ENDBRANCH  22  23
END_RES LEU A  32
BEGIN_RES HIS A  38
REMARK  2 active torsions:
REMARK  status: ('A' for Active; 'I' for Inactive)
REMARK   12  A    between atoms: CA   and  CB  
REMARK   13  A    between atoms: CB   and  CG  
ROOT
ATOM     27  CA  HIS A  38     -10.959   4.941   1.621  1.00 16.94     0.182 C 
ENDROOT
BRANCH  27  28
ATOM     28  CB  HIS A  38     -11.810   4.840   2.881  1.00 15.47     0.095 C 
BRANCH  28  29
ATOM     29  CG  HIS A  38     -12.958   3.890   2.760  1.00 18.62     0.053 A 
ATOM     30  CD2 HIS A  38     -14.112   3.976   2.057  1.00 15.06     0.116 A 
ATOM     31  NE2 HIS A  38     -14.803   2.812   2.274  1.00 18.12    -0.359 N 
ATOM     32  CE1 HIS A  38     -14.102   2.039   3.081  1.00 14.78     0.207 A 
ATOM     33  H06 HIS A  38     -15.704   2.583   1.880  1.00 18.12     0.166 HD
ATOM     34  ND1 HIS A  38     -12.984   2.666   3.391  1.00 16.58    -0.247 NA
ENDBRANCH  28  29
ENDBRANCH  27  28
END_RES HIS A  38
BEGIN_RES TRP A  63
REMARK  2 active torsions:
REMARK  status: ('A' for Active; 'I' for Inactive)
REMARK   14  A    between atoms: CA   and  CB  
REMARK   15  A    between atoms: CB   and  CG  
ROOT
ATOM     35  CA  TRP A  63     -22.437   6.257   6.543  1.00 27.04     0.181 C 
ENDROOT
BRANCH  35  36
ATOM     36  CB  TRP A  63     -22.360   6.642   5.068  1.00 31.37     0.075 C 
BRANCH  36  37
ATOM     37  CG  TRP A  63     -20.957   6.889   4.555  1.00 34.37    -0.028 A 
ATOM     38  CD2 TRP A  63     -19.892   5.934   4.446  1.00 33.79    -0.002 A 
ATOM     39  CE3 TRP A  63     -19.755   4.588   4.791  1.00 32.99     0.014 A 
ATOM     40  CE2 TRP A  63     -18.797   6.597   3.851  1.00 35.84     0.042 A 
ATOM     41  CZ3 TRP A  63     -18.547   3.953   4.535  1.00 32.93     0.001 A 
ATOM     42  CH2 TRP A  63     -17.476   4.640   3.943  1.00 39.24     0.002 A 
ATOM     43  CZ2 TRP A  63     -17.582   5.960   3.593  1.00 37.99     0.030 A 
ATOM     44  NE1 TRP A  63     -19.182   7.888   3.613  1.00 37.98    -0.365 N 
ATOM     45  H06 TRP A  63     -18.607   8.604   3.192  1.00 37.98     0.165 HD
ATOM     46  CD1 TRP A  63     -20.477   8.052   4.041  1.00 38.16     0.096 A 
ENDBRANCH  36  37
ENDBRANCH  35  36
END_RES TRP A  63
BEGIN_RES LEU A  66
REMARK  2 active torsions:
REMARK  status: ('A' for Active; 'I' for Inactive)
REMARK   16  A    between atoms: CA   and  CB  
REMARK   17  A    between atoms: CB   and  CG  
ROOT
ATOM     47  CA  LEU A  66     -20.004   6.489  11.120  1.00 10.90     0.177 C 
ENDROOT
BRANCH  47  48
ATOM     48  CB  LEU A  66     -19.626   5.453  10.069  1.00 13.57     0.038 C 
BRANCH  48  49
ATOM     49  CG  LEU A  66     -19.545   3.996  10.521  1.00  8.73    -0.020 C 
ATOM     50  CD1 LEU A  66     -19.573   3.903  12.024  1.00 14.23     0.009 C 
ATOM     51  CD2 LEU A  66     -20.715   3.248   9.935  1.00  1.92     0.009 C 
ENDBRANCH  48  49
ENDBRANCH  47  48
END_RES LEU A  66
BEGIN_RES PHE A  70
REMARK  2 active torsions:
REMARK  status: ('A' for Active; 'I' for Inactive)
REMARK   18  A    between atoms: CA   and  CB  
REMARK   19  A    between atoms: CB   and  CG  
ROOT
ATOM     52  CA  PHE A  70     -14.974   9.434  13.165  1.00  8.78     0.180 C 
ENDROOT
BRANCH  52  53
ATOM     53  CB  PHE A  70     -14.707   9.132  11.681  1.00  6.33     0.073 C 
BRANCH  53  54
ATOM     54  CG  PHE A  70     -13.916   7.872  11.460  1.00  3.42    -0.056 A 
ATOM     55  CD1 PHE A  70     -13.716   7.367  10.184  1.00 13.88     0.007 A 
ATOM     56  CE1 PHE A  70     -13.015   6.164   9.988  1.00 12.71     0.001 A 
ATOM     57  CZ  PHE A  70     -12.510   5.460  11.082  1.00  4.21     0.000 A 
ATOM     58  CE2 PHE A  70     -12.701   5.954  12.359  1.00  2.83     0.001 A 
ATOM     59  CD2 PHE A  70     -13.402   7.158  12.544  1.00  1.00     0.007 A 
ENDBRANCH  53  54
ENDBRANCH  52  53
END_RES PHE A  70
BEGIN_RES TYR A  73
REMARK  3 active torsions:
REMARK  status: ('A' for Active; 'I' for Inactive)
REMARK   20  A    between atoms: CA   and  CB  
REMARK   21  A    between atoms: CB   and  CG  
REMARK   22  A    between atoms: CZ   and  OH  
ROOT
ATOM     60  CA  TYR A  73     -13.212  10.166  17.260  1.00 12.17     0.180 C 
ENDROOT
BRANCH  60  61
ATOM     61  CB  TYR A  73     -13.301   8.846  16.517  1.00 12.84     0.073 C 
BRANCH  61  62
ATOM     62  CG  TYR A  73     -12.042   8.054  16.581  1.00 15.89    -0.056 A 
ATOM     63  CD1 TYR A  73     -11.542   7.610  17.785  1.00 16.00     0.010 A 
ATOM     64  CE1 TYR A  73     -10.347   6.894  17.851  1.00 13.55     0.037 A 
ATOM     65  CZ  TYR A  73      -9.653   6.628  16.688  1.00 18.13     0.065 A 
ATOM     66  CE2 TYR A  73     -10.131   7.060  15.473  1.00 15.89     0.037 A 
ATOM     67  CD2 TYR A  73     -11.323   7.770  15.425  1.00 21.86     0.010 A 
BRANCH  65  68
ATOM     68  OH  TYR A  73      -8.477   5.920  16.729  1.00 12.12    -0.361 OA
ATOM     69  H08 TYR A  73      -8.054   5.950  15.867  1.00 12.12     0.217 HD
ENDBRANCH  65  68
ENDBRANCH  61  62
ENDBRANCH  60  61
END_RES TYR A  73
BEGIN_RES PHE A  77
REMARK  2 active torsions:
REMARK  status: ('A' for Active; 'I' for Inactive)
REMARK   23  A    between atoms: CA   and  CB  
REMARK   24  A    between atoms: CB   and  CG  
ROOT
ATOM     70  CA  PHE A  77      -8.400  10.581  20.110  1.00 17.17     0.180 C 
ENDROOT
BRANCH  70  71
ATOM     71  CB  PHE A  77      -8.228   9.750  18.851  1.00 10.44     0.073 C 
BRANCH  71  72
ATOM     72  CG  PHE A  77      -7.185   8.683  18.971  1.00  6.07    -0.056 A 
ATOM     73  CD2 PHE A  77      -6.058   8.715  18.182  1.00  9.61     0.007 A 
ATOM     74  CE2 PHE A  77      -5.084   7.730  18.287  1.00  1.00     0.001 A 
ATOM     75  CZ  PHE A  77      -5.239   6.698  19.198  1.00  1.92     0.000 A 
ATOM     76  CE1 PHE A  77      -6.360   6.653  19.996  1.00  9.25     0.001 A 
ATOM     77  CD1 PHE A  77      -7.331   7.647  19.878  1.00  9.63     0.007 A 
ENDBRANCH  71  72
ENDBRANCH  70  71
END_RES PHE A  77
BEGIN_RES LEU A  96
REMARK  2 active torsions:
REMARK  status: ('A' for Active; 'I' for Inactive)
REMARK   25  A    between atoms: CA   and  CB  
REMARK   26  A    between atoms: CB   and  CG  
ROOT
ATOM     78  CA  LEU A  96       0.717   6.481  17.359  1.00 16.08     0.177 C 
ENDROOT
BRANCH  78  79
ATOM     79  CB  LEU A  96      -0.370   7.101  18.230  1.00 18.83     0.038 C 
BRANCH  79  80
ATOM     80  CG  LEU A  96      -0.195   6.863  19.730  1.00 19.03    -0.020 C 
ATOM     81  CD1 LEU A  96      -1.428   7.357  20.449  1.00 28.17     0.009 C 
ATOM     82  CD2 LEU A  96      -0.034   5.387  20.014  1.00 22.01     0.009 C 
ENDBRANCH  79  80
ENDBRANCH  78  79
END_RES LEU A  96
BEGIN_RES VAL A  98
REMARK  1 active torsions:
REMARK  status: ('A' for Active; 'I' for Inactive)
REMARK   27  A    between atoms: CA   and  CB  
ROOT
ATOM     83  CA  VAL A  98      -3.928   2.082  14.897  1.00 19.83     0.180 C 
ENDROOT
BRANCH  83  84
ATOM     84  CB  VAL A  98      -5.203   2.807  15.281  1.00 17.87     0.009 C 
ATOM     85  CG2 VAL A  98      -4.888   4.219  15.703  1.00 29.90     0.012 C 
ATOM     86  CG1 VAL A  98      -5.897   2.055  16.397  1.00 14.79     0.012 C 
ENDBRANCH  83  84
END_RES VAL A  98
BEGIN_RES ASN A 112
REMARK  2 active torsions:
REMARK  status: ('A' for Active; 'I' for Inactive)
REMARK   28  A    between atoms: CA   and  CB  
REMARK   29  A    between atoms: CB   and  CG  
REMARK       I    between atoms: CG   and  ND2 
ROOT
ATOM     87  CA  ASN A 112     -11.790  -8.793  14.069  1.00 37.70     0.185 C 
ENDROOT
BRANCH  87  88
ATOM     88  CB  ASN A 112     -12.992  -7.945  14.465  1.00 26.24     0.137 C 
BRANCH  88  89
ATOM     89  CG  ASN A 112     -13.812  -8.562  15.575  1.00 21.77     0.217 C 
ATOM     90  ND2 ASN A 112     -14.961  -9.131  15.211  1.00  9.31    -0.370 N 
ATOM     91  H04 ASN A 112     -15.556  -9.559  15.907  1.00  9.31     0.159 HD
ATOM     92  H05 ASN A 112     -15.237  -9.135  14.240  1.00  9.31     0.159 HD
ATOM     93  OD1 ASN A 112     -13.424  -8.525  16.749  1.00 21.61    -0.274 OA
ENDBRANCH  88  89
ENDBRANCH  87  88
END_RES ASN A 112
BEGIN_RES PHE A 114
REMARK  2 active torsions:
REMARK  status: ('A' for Active; 'I' for Inactive)
REMARK   30  A    between atoms: CA   and  CB  
REMARK   31  A    between atoms: CB   and  CG  
ROOT
ATOM     94  CA  PHE A 114      -7.754  -3.619  17.012  1.00 26.06     0.180 C 
ENDROOT
BRANCH  94  95
ATOM     95  CB  PHE A 114      -8.890  -3.080  17.867  1.00 19.95     0.073 C 
BRANCH  95  96
ATOM     96  CG  PHE A 114      -8.758  -1.624  18.178  1.00 17.65    -0.056 A 
ATOM     97  CD1 PHE A 114      -8.469  -1.196  19.471  1.00 13.01     0.007 A 
ATOM     98  CE1 PHE A 114      -8.374   0.158  19.767  1.00  6.74     0.001 A 
ATOM     99  CZ  PHE A 114      -8.566   1.106  18.767  1.00  6.27     0.000 A 
ATOM    100  CE2 PHE A 114      -8.854   0.691  17.476  1.00 17.36     0.001 A 
ATOM    101  CD2 PHE A 114      -8.948  -0.674  17.185  1.00 18.39     0.007 A 
ENDBRANCH  95  96
ENDBRANCH  94  95
END_RES PHE A 114
BEGIN_RES VAL A 116
REMARK  1 active torsions:
REMARK  status: ('A' for Active; 'I' for Inactive)
REMARK   32  A    between atoms: CA   and  CB  
ROOT
ATOM    102  CA  VAL A 116      -2.467   0.283  18.565  1.00 13.48     0.180 C 
ENDROOT
BRANCH 102 103
ATOM    103  CB  VAL A 116      -3.101   1.238  19.599  1.00 20.86     0.009 C 
ATOM    104  CG1 VAL A 116      -2.996   2.680  19.095  1.00 25.01     0.012 C 
ATOM    105  CG2 VAL A 116      -4.533   0.850  19.883  1.00 25.34     0.012 C 
ENDBRANCH 102 103
END_RES VAL A 116
BEGIN_RES ILE A 123
REMARK  2 active torsions:
REMARK  status: ('A' for Active; 'I' for Inactive)
REMARK   33  A    between atoms: CA   and  CB  
REMARK   34  A    between atoms: CB   and  CG1 
ROOT
ATOM    106  CA  ILE A 123       1.557  -1.626  23.222  1.00 15.07     0.180 C 
ENDROOT
BRANCH 106 107
ATOM    107  CB  ILE A 123       1.697  -0.112  23.461  1.00 14.41     0.013 C 
ATOM    108  CG2 ILE A 123       3.075   0.198  24.018  1.00 18.35     0.012 C 
BRANCH 107 109
ATOM    109  CG1 ILE A 123       1.469   0.653  22.160  1.00 15.23     0.002 C 
ATOM    110  CD1 ILE A 123       0.143   1.373  22.105  1.00 14.67     0.005 C 
ENDBRANCH 107 109
ENDBRANCH 106 107
END_RES ILE A 123
BEGIN_RES LEU A 124
REMARK  2 active torsions:
REMARK  status: ('A' for Active; 'I' for Inactive)
REMARK   35  A    between atoms: CA   and  CB  
REMARK   36  A    between atoms: CB   and  CG  
ROOT
ATOM    111  CA  LEU A 124      -2.057  -2.686  23.524  1.00 11.86     0.177 C 
ENDROOT
BRANCH 111 112
ATOM    112  CB  LEU A 124      -2.698  -1.652  24.429  1.00 14.60     0.038 C 
BRANCH 112 113
ATOM    113  CG  LEU A 124      -2.556  -0.242  23.876  1.00 16.19    -0.020 C 
ATOM    114  CD1 LEU A 124      -3.937   0.255  23.408  1.00 22.07     0.009 C 
ATOM    115  CD2 LEU A 124      -1.965   0.656  24.934  1.00  9.12     0.009 C 
ENDBRANCH 112 113
ENDBRANCH 111 112
END_RES LEU A 124
BEGIN_RES PHE A 126
REMARK  2 active torsions:
REMARK  status: ('A' for Active; 'I' for Inactive)
REMARK   37  A    between atoms: CA   and  CB  
REMARK   38  A    between atoms: CB   and  CG  
ROOT
ATOM    116  CA  PHE A 126      -8.784  -4.792  22.233  1.00 23.15     0.180 C 
ENDROOT
BRANCH 116 117
ATOM    117  CB  PHE A 126      -9.823  -4.011  21.461  1.00 20.65     0.073 C 
BRANCH 117 118
ATOM    118  CG  PHE A 126     -10.967  -3.574  22.289  1.00 23.65    -0.056 A 
ATOM    119  CD2 PHE A 126     -10.829  -2.535  23.192  1.00 36.63     0.007 A 
ATOM    120  CE2 PHE A 126     -11.915  -2.120  23.976  1.00 36.27     0.001 A 
ATOM    121  CZ  PHE A 126     -13.141  -2.755  23.849  1.00 18.06     0.000 A 
ATOM    122  CE1 PHE A 126     -13.283  -3.791  22.947  1.00  5.50     0.001 A 
ATOM    123  CD1 PHE A 126     -12.198  -4.195  22.170  1.00 15.29     0.007 A 
ENDBRANCH 117 118
ENDBRANCH 116 117
END_RES PHE A 126
BEGIN_RES TRP A 131
REMARK  2 active torsions:
REMARK  status: ('A' for Active; 'I' for Inactive)
REMARK   39  A    between atoms: CA   and  CB  
REMARK   40  A    between atoms: CB   and  CG  
ROOT
ATOM    124  CA  TRP A 131      -8.096  -3.335  26.542  1.00 14.52     0.181 C 
ENDROOT
BRANCH 124 125
ATOM    125  CB  TRP A 131      -7.651  -1.877  26.607  1.00 13.06     0.075 C 
BRANCH 125 126
ATOM    126  CG  TRP A 131      -8.025  -1.059  25.391  1.00 16.97    -0.028 A 
ATOM    127  CD2 TRP A 131      -9.138  -0.169  25.273  1.00 11.34    -0.002 A 
ATOM    128  CE2 TRP A 131      -9.102   0.384  23.978  1.00  5.87     0.042 A 
ATOM    129  CE3 TRP A 131     -10.166   0.213  26.142  1.00  3.80     0.014 A 
ATOM    130  CZ2 TRP A 131     -10.053   1.303  23.530  1.00  1.35     0.030 A 
ATOM    131  NE1 TRP A 131      -8.017  -0.145  23.335  1.00 13.90    -0.365 N 
ATOM    132  CH2 TRP A 131     -11.050   1.661  24.405  1.00  1.00     0.002 A 
ATOM    133  CZ3 TRP A 131     -11.113   1.121  25.703  1.00  1.00     0.001 A 
ATOM    134  CD1 TRP A 131      -7.374  -1.011  24.189  1.00 17.22     0.096 A 
ATOM    135  H07 TRP A 131      -7.734   0.064  22.388  1.00 13.90     0.165 HD
ENDBRANCH 125 126
ENDBRANCH 124 125
END_RES TRP A 131
BEGIN_RES LEU A 148
REMARK  2 active torsions:
REMARK  status: ('A' for Active; 'I' for Inactive)
REMARK   41  A    between atoms: CA   and  CB  
REMARK   42  A    between atoms: CB   and  CG  
ROOT
ATOM    136  CA  LEU A 148      -9.018   3.259  29.295  1.00 16.99     0.177 C 
ENDROOT
BRANCH 136 137
ATOM    137  CB  LEU A 148      -8.166   2.574  28.236  1.00  6.39     0.038 C 
BRANCH 137 138
ATOM    138  CG  LEU A 148      -8.052   3.142  26.836  1.00  1.00    -0.020 C 
ATOM    139  CD2 LEU A 148      -6.765   3.899  26.684  1.00  1.00     0.009 C 
ATOM    140  CD1 LEU A 148      -9.240   4.055  26.595  1.00  2.71     0.009 C 
ENDBRANCH 137 138
ENDBRANCH 136 137
END_RES LEU A 148
BEGIN_RES THR A 154
REMARK  2 active torsions:
REMARK  status: ('A' for Active; 'I' for Inactive)
REMARK   43  A    between atoms: CA   and  CB  
REMARK   44  A    between atoms: CB   and  OG1 
ROOT
ATOM    141  CA  THR A 154     -15.990   3.959  24.426  1.00 20.45     0.205 C 
ENDROOT
BRANCH 141 142
ATOM    142  CB  THR A 154     -14.777   4.829  24.694  1.00 16.79     0.146 C 
ATOM    143  CG2 THR A 154     -13.607   4.371  23.845  1.00 20.24     0.042 C 
BRANCH 142 144
ATOM    144  OG1 THR A 154     -15.093   6.185  24.354  1.00 18.84    -0.393 OA
ATOM    145  H06 THR A 154     -14.414   6.536  23.773  1.00 18.84     0.210 HD
ENDBRANCH 142 144
ENDBRANCH 141 142
END_RES THR A 154
BEGIN_RES VAL A 158
REMARK  1 active torsions:
REMARK  status: ('A' for Active; 'I' for Inactive)
REMARK   45  A    between atoms: CA   and  CB  
ROOT
ATOM    146  CA  VAL A 158     -15.487  -0.189  19.892  1.00 15.49     0.180 C 
ENDROOT
BRANCH 146 147
ATOM    147  CB  VAL A 158     -14.291  -0.273  20.822  1.00  6.52     0.009 C 
ATOM    148  CG1 VAL A 158     -13.297  -1.300  20.330  1.00  1.00     0.012 C 
ATOM    149  CG2 VAL A 158     -13.655   1.080  20.910  1.00  5.99     0.012 C 
ENDBRANCH 146 147
END_RES VAL A 158
BEGIN_RES LEU A 161
REMARK  2 active torsions:
REMARK  status: ('A' for Active; 'I' for Inactive)
REMARK   46  A    between atoms: CA   and  CB  
REMARK   47  A    between atoms: CB   and  CG  
ROOT
ATOM    150  CA  LEU A 161     -18.031  -1.858  15.935  1.00 13.31     0.177 C 
ENDROOT
BRANCH 150 151
ATOM    151  CB  LEU A 161     -17.046  -0.706  16.001  1.00 14.13     0.038 C 
BRANCH 151 152
ATOM    152  CG  LEU A 161     -17.407   0.537  15.198  1.00 19.39    -0.020 C 
ATOM    153  CD2 LEU A 161     -18.848   0.917  15.443  1.00 27.75     0.009 C 
ATOM    154  CD1 LEU A 161     -17.190   0.253  13.737  1.00 18.59     0.009 C 
ENDBRANCH 151 152
ENDBRANCH 150 151
END_RES LEU A 161
BEGIN_RES GLN A 168
REMARK  3 active torsions:
REMARK  status: ('A' for Active; 'I' for Inactive)
REMARK   48  A    between atoms: CA   and  CB  
REMARK   49  A    between atoms: CB   and  CG  
REMARK   50  A    between atoms: CG   and  CD  
REMARK       I    between atoms: CD   and  NE2 
ROOT
ATOM    155  CA  GLN A 168     -22.035  -6.020   8.155  1.00 30.94     0.177 C 
ENDROOT
BRANCH 155 156
ATOM    156  CB  GLN A 168     -23.054  -5.218   8.946  1.00 41.76     0.044 C 
BRANCH 156 157
ATOM    157  CG  GLN A 168     -24.471  -5.707   8.815  1.00 61.20     0.105 C 
BRANCH 157 158
ATOM    158  CD  GLN A 168     -25.251  -4.912   7.786  1.00 75.49     0.215 C 
ATOM    159  NE2 GLN A 168     -25.983  -5.620   6.924  1.00 85.00    -0.370 N 
ATOM    160  H06 GLN A 168     -26.522  -5.148   6.213  1.00 85.00     0.159 HD
ATOM    161  H07 GLN A 168     -25.996  -6.629   6.982  1.00 85.00     0.159 HD
ATOM    162  OE1 GLN A 168     -25.194  -3.674   7.758  1.00 73.64    -0.274 OA
ENDBRANCH 157 158
ENDBRANCH 156 157
ENDBRANCH 155 156
END_RES GLN A 168
ENDMDL
MODEL 8
REMARK VINA RESULT:      -6.1      1.958     11.829
REMARK  Name = human_CD1d_brij35_pred.rank_0
REMARK  79 active torsions:
REMARK  status: ('A' for Active; 'I' for Inactive)
REMARK    1  A    between atoms: O_2  and  C_23
REMARK    2  A    between atoms: O_2  and  C_25
REMARK    3  A    between atoms: C_3  and  C_5
REMARK    4  A    between atoms: O_4  and  C_27
REMARK    5  A    between atoms: O_4  and  C_29
REMARK    6  A    between atoms: C_5  and  C_7
REMARK    7  A    between atoms: O_6  and  C_31
REMARK    8  A    between atoms: O_6  and  C_33
REMARK    9  A    between atoms: C_7  and  C_9
REMARK   10  A    between atoms: O_8  and  C_35
REMARK   11  A    between atoms: O_8  and  C_37
REMARK   12  A    between atoms: C_9  and  C_11
REMARK   13  A    between atoms: O_10  and  C_39
REMARK   14  A    between atoms: O_10  and  C_41
REMARK   15  A    between atoms: C_11  and  C_13
REMARK   16  A    between atoms: O_12  and  C_43
REMARK   17  A    between atoms: O_12  and  C_45
REMARK   18  A    between atoms: C_13  and  C_15
REMARK   19  A    between atoms: O_14  and  C_47
REMARK   20  A    between atoms: O_14  and  C_49
REMARK   21  A    between atoms: C_15  and  C_17
REMARK   22  A    between atoms: O_16  and  C_50
REMARK   23  A    between atoms: O_16  and  C_51
REMARK   24  A    between atoms: C_17  and  C_19
REMARK   25  A    between atoms: O_18  and  C_52
REMARK   26  A    between atoms: O_18  and  C_53
REMARK   27  A    between atoms: C_19  and  C_21
REMARK   28  A    between atoms: O_20  and  C_54
REMARK   29  A    between atoms: O_20  and  C_55
REMARK   30  A    between atoms: C_21  and  C_23
REMARK   31  A    between atoms: O_22  and  C_56
REMARK   32  A    between atoms: O_22  and  C_57
REMARK   33  A    between atoms: O_24  and  C_58
REMARK   34  A    between atoms: O_24  and  C_59
REMARK   35  A    between atoms: C_25  and  C_27
REMARK   36  A    between atoms: O_26  and  C_60
REMARK   37  A    between atoms: O_26  and  C_61
REMARK   38  A    between atoms: O_28  and  C_62
REMARK   39  A    between atoms: O_28  and  C_63
REMARK   40  A    between atoms: C_29  and  C_31
REMARK   41  A    between atoms: O_30  and  C_64
REMARK   42  A    between atoms: O_30  and  C_65
REMARK   43  A    between atoms: O_32  and  C_66
REMARK   44  A    between atoms: O_32  and  C_67
REMARK   45  A    between atoms: C_33  and  C_35
REMARK   46  A    between atoms: O_34  and  C_68
REMARK   47  A    between atoms: O_34  and  C_69
REMARK   48  A    between atoms: O_36  and  C_70
REMARK   49  A    between atoms: O_36  and  C_71
REMARK   50  A    between atoms: C_37  and  C_39
REMARK   51  A    between atoms: O_38  and  C_72
REMARK   52  A    between atoms: O_38  and  C_73
REMARK   53  A    between atoms: O_40  and  C_74
REMARK   54  A    between atoms: O_40  and  C_75
REMARK   55  A    between atoms: C_41  and  C_43
REMARK   56  A    between atoms: O_42  and  C_76
REMARK   57  A    between atoms: O_42  and  C_77
REMARK   58  A    between atoms: O_44  and  C_78
REMARK   59  A    between atoms: O_44  and  C_79
REMARK   60  A    between atoms: C_45  and  C_47
REMARK   61  A    between atoms: O_46  and  C_80
REMARK   62  A    between atoms: O_46  and  C_81
REMARK   63  A    between atoms: C_49  and  C_50
REMARK   64  A    between atoms: C_51  and  C_52
REMARK   65  A    between atoms: C_53  and  C_54
REMARK   66  A    between atoms: C_55  and  C_56
REMARK   67  A    between atoms: C_57  and  C_58
REMARK   68  A    between atoms: C_59  and  C_60
REMARK   69  A    between atoms: C_61  and  C_62
REMARK   70  A    between atoms: C_63  and  C_64
REMARK   71  A    between atoms: C_65  and  C_66
REMARK   72  A    between atoms: C_67  and  C_68
REMARK   73  A    between atoms: C_69  and  C_70
REMARK   74  A    between atoms: C_71  and  C_72
REMARK   75  A    between atoms: C_73  and  C_74
REMARK   76  A    between atoms: C_75  and  C_76
REMARK   77  A    between atoms: C_77  and  C_78
REMARK   78  A    between atoms: C_79  and  C_80
REMARK   79  A    between atoms: C_81  and  C_82
REMARK                            x       y       z     vdW  Elec       q    Type
REMARK                         _______ _______ _______ _____ _____    ______ ____
ROOT
ATOM      1  C   UNL     1     -16.928  12.422  22.988  0.00  0.00    +0.000 C 
ENDROOT
BRANCH   1   2
ATOM      2  C   UNL     1     -16.926  13.924  22.758  0.00  0.00    +0.000 C 
BRANCH   2   3
ATOM      3  O   UNL     1     -15.600  14.466  22.888  0.00  0.00    +0.000 OA
BRANCH   3   4
ATOM      4  C   UNL     1     -15.505  15.237  24.096  0.00  0.00    +0.000 C 
BRANCH   4   5
ATOM      5  C   UNL     1     -14.139  15.105  24.742  0.00  0.00    +0.000 C 
BRANCH   5   6
ATOM      6  O   UNL     1     -13.281  14.394  23.824  0.00  0.00    +0.000 OA
BRANCH   6   7
ATOM      7  C   UNL     1     -11.936  14.268  24.278  0.00  0.00    +0.000 C 
BRANCH   7   8
ATOM      8  C   UNL     1     -11.646  15.317  25.362  0.00  0.00    +0.000 C 
BRANCH   8   9
ATOM      9  O   UNL     1     -10.822  14.748  26.399  0.00  0.00    +0.000 OA
BRANCH   9  10
ATOM     10  C   UNL     1     -11.564  14.040  27.374  0.00  0.00    +0.000 C 
BRANCH  10  11
ATOM     11  C   UNL     1     -10.624  13.333  28.387  0.00  0.00    +0.000 C 
BRANCH  11  12
ATOM     12  O   UNL     1     -11.353  12.351  29.111  0.00  0.00    +0.000 OA
BRANCH  12  13
ATOM     13  C   UNL     1     -11.409  11.057  28.524  0.00  0.00    +0.000 C 
BRANCH  13  14
ATOM     14  C   UNL     1     -11.415  10.000  29.662  0.00  0.00    +0.000 C 
BRANCH  14  15
ATOM     15  O   UNL     1     -10.822  10.506  30.874  0.00  0.00    +0.000 OA
BRANCH  15  16
ATOM     16  C   UNL     1      -9.563   9.985  31.209  0.00  0.00    +0.000 C 
BRANCH  16  17
ATOM     17  C   UNL     1      -8.527  11.054  30.936  0.00  0.00    +0.000 C 
BRANCH  17  18
ATOM     18  O   UNL     1      -7.459  10.565  30.110  0.00  0.00    +0.000 OA
BRANCH  18  19
ATOM     19  C   UNL     1      -7.719  10.635  28.740  0.00  0.00    +0.000 C 
BRANCH  19  20
ATOM     20  C   UNL     1      -7.441   9.297  28.076  0.00  0.00    +0.000 C 
BRANCH  20  21
ATOM     21  O   UNL     1      -8.638   8.536  28.050  0.00  0.00    +0.000 OA
BRANCH  21  22
ATOM     22  C   UNL     1      -8.484   7.342  28.757  0.00  0.00    +0.000 C 
BRANCH  22  23
ATOM     23  C   UNL     1      -9.870   6.723  28.985  0.00  0.00    +0.000 C 
BRANCH  23  24
ATOM     24  O   UNL     1     -10.688   6.941  27.848  0.00  0.00    +0.000 OA
BRANCH  24  25
ATOM     25  C   UNL     1     -10.623   5.862  26.918  0.00  0.00    +0.000 C 
BRANCH  25  26
ATOM     26  C   UNL     1     -10.946   6.428  25.516  0.00  0.00    +0.000 C 
BRANCH  26  27
ATOM     27  O   UNL     1     -10.314   5.608  24.531  0.00  0.00    +0.000 OA
BRANCH  27  28
ATOM     28  C   UNL     1      -9.338   6.286  23.778  0.00  0.00    +0.000 C 
BRANCH  28  29
ATOM     29  C   UNL     1      -8.745   5.427  22.694  0.00  0.00    +0.000 C 
BRANCH  29  30
ATOM     30  O   UNL     1      -7.377   5.261  22.915  0.00  0.00    +0.000 OA
BRANCH  30  31
ATOM     31  C   UNL     1      -6.865   4.058  22.375  0.00  0.00    +0.000 C 
BRANCH  31  32
ATOM     32  C   UNL     1      -5.658   3.634  23.185  0.00  0.00    +0.000 C 
BRANCH  32  33
ATOM     33  O   UNL     1      -4.576   3.451  22.308  0.00  0.00    +0.000 OA
BRANCH  33  34
ATOM     34  C   UNL     1      -3.720   4.543  22.262  0.00  0.00    +0.000 C 
BRANCH  34  35
ATOM     35  C   UNL     1      -2.987   4.656  23.584  0.00  0.00    +0.000 C 
BRANCH  35  36
ATOM     36  O   UNL     1      -1.602   4.424  23.370  0.00  0.00    +0.000 OA
BRANCH  36  37
ATOM     37  C   UNL     1      -0.837   5.582  23.619  0.00  0.00    +0.000 C 
BRANCH  37  38
ATOM     38  C   UNL     1       0.471   5.173  24.320  0.00  0.00    +0.000 C 
BRANCH  38  39
ATOM     39  O   UNL     1       0.998   6.341  24.894  0.00  0.00    +0.000 OA
BRANCH  39  40
ATOM     40  C   UNL     1       0.507   7.530  24.212  0.00  0.00    +0.000 C 
BRANCH  40  42
ATOM     41  O   UNL     1       1.760   9.580  24.326  0.00  0.00    +0.000 OA
ATOM     42  C   UNL     1       0.866   8.744  25.050  0.00  0.00    +0.000 C 
ENDBRANCH  40  42
ENDBRANCH  39  40
ENDBRANCH  38  39
ENDBRANCH  37  38
ENDBRANCH  36  37
ENDBRANCH  35  36
ENDBRANCH  34  35
ENDBRANCH  33  34
ENDBRANCH  32  33
ENDBRANCH  31  32
ENDBRANCH  30  31
ENDBRANCH  29  30
ENDBRANCH  28  29
ENDBRANCH  27  28
ENDBRANCH  26  27
ENDBRANCH  25  26
ENDBRANCH  24  25
ENDBRANCH  23  24
ENDBRANCH  22  23
ENDBRANCH  21  22
ENDBRANCH  20  21
ENDBRANCH  19  20
ENDBRANCH  18  19
ENDBRANCH  17  18
ENDBRANCH  16  17
ENDBRANCH  15  16
ENDBRANCH  14  15
ENDBRANCH  13  14
ENDBRANCH  12  13
ENDBRANCH  11  12
ENDBRANCH  10  11
ENDBRANCH   9  10
ENDBRANCH   8   9
ENDBRANCH   7   8
ENDBRANCH   6   7
ENDBRANCH   5   6
ENDBRANCH   4   5
ENDBRANCH   3   4
ENDBRANCH   2   3
ENDBRANCH   1   2
BRANCH   1  43
ATOM     43  O   UNL     1     -18.197  11.865  22.676  0.00  0.00    +0.000 OA
BRANCH  43  44
ATOM     44  C   UNL     1     -18.183  10.479  22.641  0.00  0.00    +0.000 C 
BRANCH  44  45
ATOM     45  C   UNL     1     -17.541   9.943  23.924  0.00  0.00    +0.000 C 
BRANCH  45  46
ATOM     46  O   UNL     1     -16.731   8.821  23.588  0.00  0.00    +0.000 OA
BRANCH  46  47
ATOM     47  C   UNL     1     -16.246   8.798  22.281  0.00  0.00    +0.000 C 
BRANCH  47  48
ATOM     48  C   UNL     1     -14.761   9.196  22.271  0.00  0.00    +0.000 C 
BRANCH  48  49
ATOM     49  O   UNL     1     -14.190   8.822  23.474  0.00  0.00    +0.000 OA
BRANCH  49  50
ATOM     50  C   UNL     1     -12.772   8.763  23.391  0.00  0.00    +0.000 C 
BRANCH  50  51
ATOM     51  C   UNL     1     -12.381   7.887  22.206  0.00  0.00    +0.000 C 
BRANCH  51  52
ATOM     52  O   UNL     1     -11.202   8.435  21.585  0.00  0.00    +0.000 OA
BRANCH  52  53
ATOM     53  C   UNL     1     -11.102   8.004  20.224  0.00  0.00    +0.000 C 
BRANCH  53  54
ATOM     54  C   UNL     1     -11.197   6.471  20.160  0.00  0.00    +0.000 C 
BRANCH  54  55
ATOM     55  O   UNL     1     -10.929   6.049  18.816  0.00  0.00    +0.000 OA
BRANCH  55  56
ATOM     56  C   UNL     1     -10.383   7.109  18.047  0.00  0.00    +0.000 C 
BRANCH  56  57
ATOM     57  C   UNL     1      -9.864   6.505  16.772  0.00  0.00    +0.000 C 
BRANCH  57  58
ATOM     58  O   UNL     1      -8.621   5.868  17.014  0.00  0.00    +0.000 OA
BRANCH  58  59
ATOM     59  C   UNL     1      -8.613   4.542  16.595  0.00  0.00    +0.000 C 
BRANCH  59  60
ATOM     60  C   UNL     1      -9.419   4.430  15.312  0.00  0.00    +0.000 C 
BRANCH  60  61
ATOM     61  O   UNL     1      -8.527   4.214  14.229  0.00  0.00    +0.000 OA
BRANCH  61  62
ATOM     62  C   UNL     1      -8.974   3.222  13.333  0.00  0.00    +0.000 C 
BRANCH  62  63
ATOM     63  C   UNL     1      -8.614   3.650  11.904  0.00  0.00    +0.000 C 
BRANCH  63  64
ATOM     64  O   UNL     1      -9.189   4.938  11.708  0.00  0.00    +0.000 OA
BRANCH  64  65
ATOM     65  C   UNL     1      -9.039   5.382  10.429  0.00  0.00    +0.000 C 
BRANCH  65  66
ATOM     66  C   UNL     1      -9.292   4.249   9.407  0.00  0.00    +0.000 C 
BRANCH  66  67
ATOM     67  O   UNL     1      -9.473   4.845   8.122  0.00  0.00    +0.000 OA
BRANCH  67  68
ATOM     68  C   UNL     1     -10.542   4.231   7.401  0.00  0.00    +0.000 C 
BRANCH  68  69
ATOM     69  C   UNL     1     -11.371   5.391   6.808  0.00  0.00    +0.000 C 
BRANCH  69  70
ATOM     70  O   UNL     1     -12.522   4.763   6.199  0.00  0.00    +0.000 OA
BRANCH  70  71
ATOM     71  C   UNL     1     -13.036   3.780   7.083  0.00  0.00    +0.000 C 
BRANCH  71  72
ATOM     72  C   UNL     1     -14.530   3.580   6.672  0.00  0.00    +0.000 C 
BRANCH  72  73
ATOM     73  C   UNL     1     -15.285   4.793   7.208  0.00  0.00    +0.000 C 
BRANCH  73  74
ATOM     74  C   UNL     1     -16.540   4.301   7.933  0.00  0.00    +0.000 C 
BRANCH  74  75
ATOM     75  C   UNL     1     -16.565   2.797   7.942  0.00  0.00    +0.000 C 
BRANCH  75  76
ATOM     76  C   UNL     1     -17.978   2.331   7.753  0.00  0.00    +0.000 C 
BRANCH  76  77
ATOM     77  C   UNL     1     -18.239   1.183   8.710  0.00  0.00    +0.000 C 
BRANCH  77  78
ATOM     78  C   UNL     1     -17.014   1.003   9.608  0.00  0.00    +0.000 C 
BRANCH  78  79
ATOM     79  C   UNL     1     -16.678  -0.476   9.722  0.00  0.00    +0.000 C 
BRANCH  79  80
ATOM     80  C   UNL     1     -15.629  -0.721  10.771  0.00  0.00    +0.000 C 
BRANCH  80  82
ATOM     81  C   UNL     1     -14.518  -1.433   8.673  0.00  0.00    +0.000 C 
ATOM     82  C   UNL     1     -14.308  -1.032  10.117  0.00  0.00    +0.000 C 
ENDBRANCH  80  82
ENDBRANCH  79  80
ENDBRANCH  78  79
ENDBRANCH  77  78
ENDBRANCH  76  77
ENDBRANCH  75  76
ENDBRANCH  74  75
ENDBRANCH  73  74
ENDBRANCH  72  73
ENDBRANCH  71  72
ENDBRANCH  70  71
ENDBRANCH  69  70
ENDBRANCH  68  69
ENDBRANCH  67  68
ENDBRANCH  66  67
ENDBRANCH  65  66
ENDBRANCH  64  65
ENDBRANCH  63  64
ENDBRANCH  62  63
ENDBRANCH  61  62
ENDBRANCH  60  61
ENDBRANCH  59  60
ENDBRANCH  58  59
ENDBRANCH  57  58
ENDBRANCH  56  57
ENDBRANCH  55  56
ENDBRANCH  54  55
ENDBRANCH  53  54
ENDBRANCH  52  53
ENDBRANCH  51  52
ENDBRANCH  50  51
ENDBRANCH  49  50
ENDBRANCH  48  49
ENDBRANCH  47  48
ENDBRANCH  46  47
ENDBRANCH  45  46
ENDBRANCH  44  45
ENDBRANCH  43  44
ENDBRANCH   1  43
TORSDOF 79
BEGIN_RES LEU A  10
REMARK  2 active torsions:
REMARK  status: ('A' for Active; 'I' for Inactive)
REMARK    1  A    between atoms: CA   and  CB  
REMARK    2  A    between atoms: CB   and  CG  
ROOT
ATOM      1  CA  LEU A  10     -10.775  -4.871   5.898  1.00 25.14     0.177 C 
ENDROOT
BRANCH   1   2
ATOM      2  CB  LEU A  10     -12.191  -4.387   6.226  1.00 17.87     0.038 C 
BRANCH   2   3
ATOM      3  CG  LEU A  10     -12.899  -3.673   5.073  1.00 24.95    -0.020 C 
ATOM      4  CD2 LEU A  10     -13.170  -4.657   3.985  1.00 26.38     0.009 C 
ATOM      5  CD1 LEU A  10     -12.060  -2.518   4.552  1.00 28.12     0.009 C 
ENDBRANCH   2   3
ENDBRANCH   1   2
END_RES LEU A  10
BEGIN_RES CYS A  12
REMARK  2 active torsions:
REMARK  status: ('A' for Active; 'I' for Inactive)
REMARK    3  A    between atoms: CA   and  CB  
REMARK    4  A    between atoms: CB   and  SG  
ROOT
ATOM      6  CA  CYS A  12      -8.555   0.470   8.750  1.00 23.16     0.185 C 
ENDROOT
BRANCH   6   7
ATOM      7  CB  CYS A  12      -9.828   0.763   9.555  1.00 20.43     0.105 C 
BRANCH   7   8
ATOM      8  SG  CYS A  12     -11.383   0.788   8.611  1.00 24.64    -0.180 SA
ATOM      9  H04 CYS A  12     -12.418   0.878   9.457  1.00 24.64     0.101 HD
ENDBRANCH   7   8
ENDBRANCH   6   7
END_RES CYS A  12
BEGIN_RES GLN A  14
REMARK  3 active torsions:
REMARK  status: ('A' for Active; 'I' for Inactive)
REMARK    5  A    between atoms: CA   and  CB  
REMARK    6  A    between atoms: CB   and  CG  
REMARK    7  A    between atoms: CG   and  CD  
REMARK       I    between atoms: CD   and  NE2 
ROOT
ATOM     10  CA  GLN A  14      -4.645   5.402  11.377  1.00 10.43     0.177 C 
ENDROOT
BRANCH  10  11
ATOM     11  CB  GLN A  14      -5.541   5.549  12.608  1.00 14.45     0.044 C 
BRANCH  11  12
ATOM     12  CG  GLN A  14      -6.443   6.761  12.573  1.00 13.74     0.105 C 
BRANCH  12  13
ATOM     13  CD  GLN A  14      -6.994   7.109  13.935  1.00 16.29     0.215 C 
ATOM     14  NE2 GLN A  14      -6.373   6.587  14.970  1.00  8.57    -0.370 N 
ATOM     15  H06 GLN A  14      -6.696   6.786  15.906  1.00  8.57     0.159 HD
ATOM     16  H07 GLN A  14      -5.573   5.986  14.829  1.00  8.57     0.159 HD
ATOM     17  OE1 GLN A  14      -7.964   7.842  14.054  1.00 23.55    -0.274 OA
ENDBRANCH  12  13
ENDBRANCH  11  12
ENDBRANCH  10  11
END_RES GLN A  14
BEGIN_RES SER A  16
REMARK  2 active torsions:
REMARK  status: ('A' for Active; 'I' for Inactive)
REMARK    8  A    between atoms: CA   and  CB  
REMARK    9  A    between atoms: CB   and  OG  
ROOT
ATOM     18  CA  SER A  16      -1.305  10.019  14.282  1.00  2.34     0.200 C 
ENDROOT
BRANCH  18  19
ATOM     19  CB  SER A  16      -2.242   9.935  15.479  1.00  3.12     0.199 C 
BRANCH  19  20
ATOM     20  OG  SER A  16      -1.949   8.786  16.254  1.00  1.00    -0.398 OA
ATOM     21  H04 SER A  16      -1.258   8.277  15.824  1.00  1.00     0.209 HD
ENDBRANCH  19  20
ENDBRANCH  18  19
END_RES SER A  16
BEGIN_RES LEU A  32
REMARK  2 active torsions:
REMARK  status: ('A' for Active; 'I' for Inactive)
REMARK   10  A    between atoms: CA   and  CB  
REMARK   11  A    between atoms: CB   and  CG  
ROOT
ATOM     22  CA  LEU A  32     -10.272  -4.106   1.587  1.00 16.16     0.177 C 
ENDROOT
BRANCH  22  23
ATOM     23  CB  LEU A  32     -11.613  -3.858   0.880  1.00 12.35     0.038 C 
BRANCH  23  24
ATOM     24  CG  LEU A  32     -12.528  -5.099   0.932  1.00  9.77    -0.020 C 
ATOM     25  CD1 LEU A  32     -13.961  -4.706   0.666  1.00  4.35     0.009 C 
ATOM     26  CD2 LEU A  32     -12.089  -6.131  -0.074  1.00 10.60     0.009 C 
ENDBRANCH  23  24
ENDBRANCH  22  23
END_RES LEU A  32
BEGIN_RES HIS A  38
REMARK  2 active torsions:
REMARK  status: ('A' for Active; 'I' for Inactive)
REMARK   12  A    between atoms: CA   and  CB  
REMARK   13  A    between atoms: CB   and  CG  
ROOT
ATOM     27  CA  HIS A  38     -10.959   4.941   1.621  1.00 16.94     0.182 C 
ENDROOT
BRANCH  27  28
ATOM     28  CB  HIS A  38     -11.810   4.840   2.881  1.00 15.47     0.095 C 
BRANCH  28  29
ATOM     29  CG  HIS A  38     -12.998   3.944   2.737  1.00 18.62     0.053 A 
ATOM     30  CD2 HIS A  38     -14.151   4.103   2.044  1.00 15.06     0.116 A 
ATOM     31  NE2 HIS A  38     -14.890   2.962   2.229  1.00 18.12    -0.359 N 
ATOM     32  CE1 HIS A  38     -14.219   2.135   3.006  1.00 14.78     0.207 A 
ATOM     33  H06 HIS A  38     -15.803   2.785   1.834  1.00 18.12     0.166 HD
ATOM     34  ND1 HIS A  38     -13.074   2.703   3.328  1.00 16.58    -0.247 NA
ENDBRANCH  28  29
ENDBRANCH  27  28
END_RES HIS A  38
BEGIN_RES TRP A  63
REMARK  2 active torsions:
REMARK  status: ('A' for Active; 'I' for Inactive)
REMARK   14  A    between atoms: CA   and  CB  
REMARK   15  A    between atoms: CB   and  CG  
ROOT
ATOM     35  CA  TRP A  63     -22.437   6.257   6.543  1.00 27.04     0.181 C 
ENDROOT
BRANCH  35  36
ATOM     36  CB  TRP A  63     -22.360   6.642   5.068  1.00 31.37     0.075 C 
BRANCH  36  37
ATOM     37  CG  TRP A  63     -20.959   6.906   4.559  1.00 34.37    -0.028 A 
ATOM     38  CD2 TRP A  63     -19.856   5.989   4.537  1.00 33.79    -0.002 A 
ATOM     39  CE3 TRP A  63     -19.674   4.677   4.980  1.00 32.99     0.014 A 
ATOM     40  CE2 TRP A  63     -18.776   6.650   3.911  1.00 35.84     0.042 A 
ATOM     41  CZ3 TRP A  63     -18.439   4.074   4.790  1.00 32.93     0.001 A 
ATOM     42  CH2 TRP A  63     -17.384   4.758   4.165  1.00 39.24     0.002 A 
ATOM     43  CZ2 TRP A  63     -17.534   6.044   3.718  1.00 37.99     0.030 A 
ATOM     44  NE1 TRP A  63     -19.206   7.904   3.574  1.00 37.98    -0.365 N 
ATOM     45  H06 TRP A  63     -18.652   8.610   3.111  1.00 37.98     0.165 HD
ATOM     46  CD1 TRP A  63     -20.514   8.048   3.969  1.00 38.16     0.096 A 
ENDBRANCH  36  37
ENDBRANCH  35  36
END_RES TRP A  63
BEGIN_RES LEU A  66
REMARK  2 active torsions:
REMARK  status: ('A' for Active; 'I' for Inactive)
REMARK   16  A    between atoms: CA   and  CB  
REMARK   17  A    between atoms: CB   and  CG  
ROOT
ATOM     47  CA  LEU A  66     -20.004   6.489  11.120  1.00 10.90     0.177 C 
ENDROOT
BRANCH  47  48
ATOM     48  CB  LEU A  66     -19.626   5.453  10.069  1.00 13.57     0.038 C 
BRANCH  48  49
ATOM     49  CG  LEU A  66     -19.447   4.011  10.541  1.00  8.73    -0.020 C 
ATOM     50  CD1 LEU A  66     -18.990   3.975  11.976  1.00 14.23     0.009 C 
ATOM     51  CD2 LEU A  66     -20.765   3.295  10.400  1.00  1.92     0.009 C 
ENDBRANCH  48  49
ENDBRANCH  47  48
END_RES LEU A  66
BEGIN_RES PHE A  70
REMARK  2 active torsions:
REMARK  status: ('A' for Active; 'I' for Inactive)
REMARK   18  A    between atoms: CA   and  CB  
REMARK   19  A    between atoms: CB   and  CG  
ROOT
ATOM     52  CA  PHE A  70     -14.974   9.434  13.165  1.00  8.78     0.180 C 
ENDROOT
BRANCH  52  53
ATOM     53  CB  PHE A  70     -14.707   9.132  11.681  1.00  6.33     0.073 C 
BRANCH  53  54
ATOM     54  CG  PHE A  70     -13.966   7.842  11.457  1.00  3.42    -0.056 A 
ATOM     55  CD1 PHE A  70     -13.742   7.358  10.177  1.00 13.88     0.007 A 
ATOM     56  CE1 PHE A  70     -13.090   6.129   9.976  1.00 12.71     0.001 A 
ATOM     57  CZ  PHE A  70     -12.657   5.378  11.069  1.00  4.21     0.000 A 
ATOM     58  CE2 PHE A  70     -12.872   5.851  12.350  1.00  2.83     0.001 A 
ATOM     59  CD2 PHE A  70     -13.525   7.081  12.540  1.00  1.00     0.007 A 
ENDBRANCH  53  54
ENDBRANCH  52  53
END_RES PHE A  70
BEGIN_RES TYR A  73
REMARK  3 active torsions:
REMARK  status: ('A' for Active; 'I' for Inactive)
REMARK   20  A    between atoms: CA   and  CB  
REMARK   21  A    between atoms: CB   and  CG  
REMARK   22  A    between atoms: CZ   and  OH  
ROOT
ATOM     60  CA  TYR A  73     -13.212  10.166  17.260  1.00 12.17     0.180 C 
ENDROOT
BRANCH  60  61
ATOM     61  CB  TYR A  73     -13.301   8.846  16.517  1.00 12.84     0.073 C 
BRANCH  61  62
ATOM     62  CG  TYR A  73     -13.840   7.740  17.355  1.00 15.89    -0.056 A 
ATOM     63  CD1 TYR A  73     -14.320   7.978  18.624  1.00 16.00     0.010 A 
ATOM     64  CE1 TYR A  73     -14.797   6.939  19.422  1.00 13.55     0.037 A 
ATOM     65  CZ  TYR A  73     -14.785   5.648  18.932  1.00 18.13     0.065 A 
ATOM     66  CE2 TYR A  73     -14.311   5.384  17.668  1.00 15.89     0.037 A 
ATOM     67  CD2 TYR A  73     -13.841   6.431  16.886  1.00 21.86     0.010 A 
BRANCH  65  68
ATOM     68  OH  TYR A  73     -15.255   4.610  19.698  1.00 12.12    -0.361 OA
ATOM     69  H08 TYR A  73     -14.539   3.997  19.881  1.00 12.12     0.217 HD
ENDBRANCH  65  68
ENDBRANCH  61  62
ENDBRANCH  60  61
END_RES TYR A  73
BEGIN_RES PHE A  77
REMARK  2 active torsions:
REMARK  status: ('A' for Active; 'I' for Inactive)
REMARK   23  A    between atoms: CA   and  CB  
REMARK   24  A    between atoms: CB   and  CG  
ROOT
ATOM     70  CA  PHE A  77      -8.400  10.581  20.110  1.00 17.17     0.180 C 
ENDROOT
BRANCH  70  71
ATOM     71  CB  PHE A  77      -8.228   9.750  18.851  1.00 10.44     0.073 C 
BRANCH  71  72
ATOM     72  CG  PHE A  77      -7.130   8.737  18.943  1.00  6.07    -0.056 A 
ATOM     73  CD2 PHE A  77      -7.193   7.719  19.866  1.00  9.61     0.007 A 
ATOM     74  CE2 PHE A  77      -6.179   6.772  19.957  1.00  1.00     0.001 A 
ATOM     75  CZ  PHE A  77      -5.088   6.846  19.109  1.00  1.92     0.000 A 
ATOM     76  CE1 PHE A  77      -5.010   7.856  18.178  1.00  9.25     0.001 A 
ATOM     77  CD1 PHE A  77      -6.034   8.801  18.099  1.00  9.63     0.007 A 
ENDBRANCH  71  72
ENDBRANCH  70  71
END_RES PHE A  77
BEGIN_RES LEU A  96
REMARK  2 active torsions:
REMARK  status: ('A' for Active; 'I' for Inactive)
REMARK   25  A    between atoms: CA   and  CB  
REMARK   26  A    between atoms: CB   and  CG  
ROOT
ATOM     78  CA  LEU A  96       0.717   6.481  17.359  1.00 16.08     0.177 C 
ENDROOT
BRANCH  78  79
ATOM     79  CB  LEU A  96      -0.370   7.101  18.230  1.00 18.83     0.038 C 
BRANCH  79  80
ATOM     80  CG  LEU A  96      -0.125   6.980  19.734  1.00 19.03    -0.020 C 
ATOM     81  CD1 LEU A  96       0.661   8.183  20.199  1.00 28.17     0.009 C 
ATOM     82  CD2 LEU A  96      -1.438   6.947  20.481  1.00 22.01     0.009 C 
ENDBRANCH  79  80
ENDBRANCH  78  79
END_RES LEU A  96
BEGIN_RES VAL A  98
REMARK  1 active torsions:
REMARK  status: ('A' for Active; 'I' for Inactive)
REMARK   27  A    between atoms: CA   and  CB  
ROOT
ATOM     83  CA  VAL A  98      -3.928   2.082  14.897  1.00 19.83     0.180 C 
ENDROOT
BRANCH  83  84
ATOM     84  CB  VAL A  98      -5.203   2.807  15.281  1.00 17.87     0.009 C 
ATOM     85  CG2 VAL A  98      -4.965   3.660  16.500  1.00 29.90     0.012 C 
ATOM     86  CG1 VAL A  98      -6.302   1.798  15.538  1.00 14.79     0.012 C 
ENDBRANCH  83  84
END_RES VAL A  98
BEGIN_RES ASN A 112
REMARK  2 active torsions:
REMARK  status: ('A' for Active; 'I' for Inactive)
REMARK   28  A    between atoms: CA   and  CB  
REMARK   29  A    between atoms: CB   and  CG  
REMARK       I    between atoms: CG   and  ND2 
ROOT
ATOM     87  CA  ASN A 112     -11.790  -8.793  14.069  1.00 37.70     0.185 C 
ENDROOT
BRANCH  87  88
ATOM     88  CB  ASN A 112     -12.992  -7.945  14.465  1.00 26.24     0.137 C 
BRANCH  88  89
ATOM     89  CG  ASN A 112     -13.795  -8.547  15.596  1.00 21.77     0.217 C 
ATOM     90  ND2 ASN A 112     -14.934  -9.149  15.253  1.00  9.31    -0.370 N 
ATOM     91  H04 ASN A 112     -15.517  -9.569  15.963  1.00  9.31     0.159 HD
ATOM     92  H05 ASN A 112     -15.214  -9.185  14.283  1.00  9.31     0.159 HD
ATOM     93  OD1 ASN A 112     -13.403  -8.470  16.766  1.00 21.61    -0.274 OA
ENDBRANCH  88  89
ENDBRANCH  87  88
END_RES ASN A 112
BEGIN_RES PHE A 114
REMARK  2 active torsions:
REMARK  status: ('A' for Active; 'I' for Inactive)
REMARK   30  A    between atoms: CA   and  CB  
REMARK   31  A    between atoms: CB   and  CG  
ROOT
ATOM     94  CA  PHE A 114      -7.754  -3.619  17.012  1.00 26.06     0.180 C 
ENDROOT
BRANCH  94  95
ATOM     95  CB  PHE A 114      -8.890  -3.080  17.867  1.00 19.95     0.073 C 
BRANCH  95  96
ATOM     96  CG  PHE A 114      -9.201  -1.643  17.600  1.00 17.65    -0.056 A 
ATOM     97  CD1 PHE A 114      -8.193  -0.683  17.599  1.00 13.01     0.007 A 
ATOM     98  CE1 PHE A 114      -8.485   0.656  17.380  1.00  6.74     0.001 A 
ATOM     99  CZ  PHE A 114      -9.800   1.056  17.156  1.00  6.27     0.000 A 
ATOM    100  CE2 PHE A 114     -10.812   0.109  17.154  1.00 17.36     0.001 A 
ATOM    101  CD2 PHE A 114     -10.510  -1.238  17.376  1.00 18.39     0.007 A 
ENDBRANCH  95  96
ENDBRANCH  94  95
END_RES PHE A 114
BEGIN_RES VAL A 116
REMARK  1 active torsions:
REMARK  status: ('A' for Active; 'I' for Inactive)
REMARK   32  A    between atoms: CA   and  CB  
ROOT
ATOM    102  CA  VAL A 116      -2.467   0.283  18.565  1.00 13.48     0.180 C 
ENDROOT
BRANCH 102 103
ATOM    103  CB  VAL A 116      -3.101   1.238  19.599  1.00 20.86     0.009 C 
ATOM    104  CG1 VAL A 116      -2.454   2.621  19.482  1.00 25.01     0.012 C 
ATOM    105  CG2 VAL A 116      -4.600   1.308  19.420  1.00 25.34     0.012 C 
ENDBRANCH 102 103
END_RES VAL A 116
BEGIN_RES ILE A 123
REMARK  2 active torsions:
REMARK  status: ('A' for Active; 'I' for Inactive)
REMARK   33  A    between atoms: CA   and  CB  
REMARK   34  A    between atoms: CB   and  CG1 
ROOT
ATOM    106  CA  ILE A 123       1.557  -1.626  23.222  1.00 15.07     0.180 C 
ENDROOT
BRANCH 106 107
ATOM    107  CB  ILE A 123       1.697  -0.112  23.461  1.00 14.41     0.013 C 
ATOM    108  CG2 ILE A 123       3.113   0.213  23.903  1.00 18.35     0.012 C 
BRANCH 107 109
ATOM    109  CG1 ILE A 123       1.351   0.660  22.190  1.00 15.23     0.002 C 
ATOM    110  CD1 ILE A 123       0.241   1.666  22.375  1.00 14.67     0.005 C 
ENDBRANCH 107 109
ENDBRANCH 106 107
END_RES ILE A 123
BEGIN_RES LEU A 124
REMARK  2 active torsions:
REMARK  status: ('A' for Active; 'I' for Inactive)
REMARK   35  A    between atoms: CA   and  CB  
REMARK   36  A    between atoms: CB   and  CG  
ROOT
ATOM    111  CA  LEU A 124      -2.057  -2.686  23.524  1.00 11.86     0.177 C 
ENDROOT
BRANCH 111 112
ATOM    112  CB  LEU A 124      -2.698  -1.652  24.429  1.00 14.60     0.038 C 
BRANCH 112 113
ATOM    113  CG  LEU A 124      -2.597  -0.247  23.853  1.00 16.19    -0.020 C 
ATOM    114  CD1 LEU A 124      -3.975   0.171  23.307  1.00 22.07     0.009 C 
ATOM    115  CD2 LEU A 124      -2.104   0.698  24.919  1.00  9.12     0.009 C 
ENDBRANCH 112 113
ENDBRANCH 111 112
END_RES LEU A 124
BEGIN_RES PHE A 126
REMARK  2 active torsions:
REMARK  status: ('A' for Active; 'I' for Inactive)
REMARK   37  A    between atoms: CA   and  CB  
REMARK   38  A    between atoms: CB   and  CG  
ROOT
ATOM    116  CA  PHE A 126      -8.784  -4.792  22.233  1.00 23.15     0.180 C 
ENDROOT
BRANCH 116 117
ATOM    117  CB  PHE A 126      -9.823  -4.011  21.461  1.00 20.65     0.073 C 
BRANCH 117 118
ATOM    118  CG  PHE A 126     -10.951  -3.546  22.296  1.00 23.65    -0.056 A 
ATOM    119  CD2 PHE A 126     -12.214  -4.092  22.144  1.00 36.63     0.007 A 
ATOM    120  CE2 PHE A 126     -13.282  -3.651  22.937  1.00 36.27     0.001 A 
ATOM    121  CZ  PHE A 126     -13.077  -2.658  23.883  1.00 18.06     0.000 A 
ATOM    122  CE1 PHE A 126     -11.818  -2.113  24.039  1.00  5.50     0.001 A 
ATOM    123  CD1 PHE A 126     -10.760  -2.559  23.248  1.00 15.29     0.007 A 
ENDBRANCH 117 118
ENDBRANCH 116 117
END_RES PHE A 126
BEGIN_RES TRP A 131
REMARK  2 active torsions:
REMARK  status: ('A' for Active; 'I' for Inactive)
REMARK   39  A    between atoms: CA   and  CB  
REMARK   40  A    between atoms: CB   and  CG  
ROOT
ATOM    124  CA  TRP A 131      -8.096  -3.335  26.542  1.00 14.52     0.181 C 
ENDROOT
BRANCH 124 125
ATOM    125  CB  TRP A 131      -7.651  -1.877  26.607  1.00 13.06     0.075 C 
BRANCH 125 126
ATOM    126  CG  TRP A 131      -8.022  -1.059  25.390  1.00 16.97    -0.028 A 
ATOM    127  CD2 TRP A 131      -9.092  -0.115  25.291  1.00 11.34    -0.002 A 
ATOM    128  CE2 TRP A 131      -9.070   0.415  23.987  1.00  5.87     0.042 A 
ATOM    129  CE3 TRP A 131     -10.070   0.333  26.186  1.00  3.80     0.014 A 
ATOM    130  CZ2 TRP A 131      -9.987   1.374  23.554  1.00  1.35     0.030 A 
ATOM    131  NE1 TRP A 131      -8.035  -0.180  23.319  1.00 13.90    -0.365 N 
ATOM    132  CH2 TRP A 131     -10.935   1.796  24.453  1.00  1.00     0.002 A 
ATOM    133  CZ3 TRP A 131     -10.983   1.282  25.762  1.00  1.00     0.001 A 
ATOM    134  CD1 TRP A 131      -7.409  -1.064  24.167  1.00 17.22     0.096 A 
ATOM    135  H07 TRP A 131      -7.772   0.000  22.360  1.00 13.90     0.165 HD
ENDBRANCH 125 126
ENDBRANCH 124 125
END_RES TRP A 131
BEGIN_RES LEU A 148
REMARK  2 active torsions:
REMARK  status: ('A' for Active; 'I' for Inactive)
REMARK   41  A    between atoms: CA   and  CB  
REMARK   42  A    between atoms: CB   and  CG  
ROOT
ATOM    136  CA  LEU A 148      -9.018   3.259  29.295  1.00 16.99     0.177 C 
ENDROOT
BRANCH 136 137
ATOM    137  CB  LEU A 148      -8.166   2.574  28.236  1.00  6.39     0.038 C 
BRANCH 137 138
ATOM    138  CG  LEU A 148      -7.293   3.378  27.294  1.00  1.00    -0.020 C 
ATOM    139  CD2 LEU A 148      -7.952   3.502  25.951  1.00  1.00     0.009 C 
ATOM    140  CD1 LEU A 148      -5.954   2.674  27.169  1.00  2.71     0.009 C 
ENDBRANCH 137 138
ENDBRANCH 136 137
END_RES LEU A 148
BEGIN_RES THR A 154
REMARK  2 active torsions:
REMARK  status: ('A' for Active; 'I' for Inactive)
REMARK   43  A    between atoms: CA   and  CB  
REMARK   44  A    between atoms: CB   and  OG1 
ROOT
ATOM    141  CA  THR A 154     -15.990   3.959  24.426  1.00 20.45     0.205 C 
ENDROOT
BRANCH 141 142
ATOM    142  CB  THR A 154     -14.777   4.829  24.694  1.00 16.79     0.146 C 
ATOM    143  CG2 THR A 154     -13.594   4.344  23.877  1.00 20.24     0.042 C 
BRANCH 142 144
ATOM    144  OG1 THR A 154     -15.080   6.178  24.315  1.00 18.84    -0.393 OA
ATOM    145  H06 THR A 154     -15.415   6.657  25.076  1.00 18.84     0.210 HD
ENDBRANCH 142 144
ENDBRANCH 141 142
END_RES THR A 154
BEGIN_RES VAL A 158
REMARK  1 active torsions:
REMARK  status: ('A' for Active; 'I' for Inactive)
REMARK   45  A    between atoms: CA   and  CB  
ROOT
ATOM    146  CA  VAL A 158     -15.487  -0.189  19.892  1.00 15.49     0.180 C 
ENDROOT
BRANCH 146 147
ATOM    147  CB  VAL A 158     -14.291  -0.273  20.822  1.00  6.52     0.009 C 
ATOM    148  CG1 VAL A 158     -13.213  -1.155  20.236  1.00  1.00     0.012 C 
ATOM    149  CG2 VAL A 158     -13.770   1.111  21.061  1.00  5.99     0.012 C 
ENDBRANCH 146 147
END_RES VAL A 158
BEGIN_RES LEU A 161
REMARK  2 active torsions:
REMARK  status: ('A' for Active; 'I' for Inactive)
REMARK   46  A    between atoms: CA   and  CB  
REMARK   47  A    between atoms: CB   and  CG  
ROOT
ATOM    150  CA  LEU A 161     -18.031  -1.858  15.935  1.00 13.31     0.177 C 
ENDROOT
BRANCH 150 151
ATOM    151  CB  LEU A 161     -17.046  -0.706  16.001  1.00 14.13     0.038 C 
BRANCH 151 152
ATOM    152  CG  LEU A 161     -17.463   0.580  15.298  1.00 19.39    -0.020 C 
ATOM    153  CD2 LEU A 161     -18.882   0.939  15.665  1.00 27.75     0.009 C 
ATOM    154  CD1 LEU A 161     -17.350   0.379  13.811  1.00 18.59     0.009 C 
ENDBRANCH 151 152
ENDBRANCH 150 151
END_RES LEU A 161
BEGIN_RES GLN A 168
REMARK  3 active torsions:
REMARK  status: ('A' for Active; 'I' for Inactive)
REMARK   48  A    between atoms: CA   and  CB  
REMARK   49  A    between atoms: CB   and  CG  
REMARK   50  A    between atoms: CG   and  CD  
REMARK       I    between atoms: CD   and  NE2 
ROOT
ATOM    155  CA  GLN A 168     -22.035  -6.020   8.155  1.00 30.94     0.177 C 
ENDROOT
BRANCH 155 156
ATOM    156  CB  GLN A 168     -23.054  -5.218   8.946  1.00 41.76     0.044 C 
BRANCH 156 157
ATOM    157  CG  GLN A 168     -24.482  -5.438   8.527  1.00 61.20     0.105 C 
BRANCH 157 158
ATOM    158  CD  GLN A 168     -24.996  -4.309   7.655  1.00 75.49     0.215 C 
ATOM    159  NE2 GLN A 168     -24.811  -4.447   6.341  1.00 85.00    -0.370 N 
ATOM    160  H06 GLN A 168     -25.129  -3.727   5.708  1.00 85.00     0.159 HD
ATOM    161  H07 GLN A 168     -24.352  -5.272   5.980  1.00 85.00     0.159 HD
ATOM    162  OE1 GLN A 168     -25.548  -3.317   8.153  1.00 73.64    -0.274 OA
ENDBRANCH 157 158
ENDBRANCH 156 157
ENDBRANCH 155 156
END_RES GLN A 168
ENDMDL
MODEL 9
REMARK VINA RESULT:      -6.1      1.902     11.486
REMARK  Name = human_CD1d_brij35_pred.rank_0
REMARK  79 active torsions:
REMARK  status: ('A' for Active; 'I' for Inactive)
REMARK    1  A    between atoms: O_2  and  C_23
REMARK    2  A    between atoms: O_2  and  C_25
REMARK    3  A    between atoms: C_3  and  C_5
REMARK    4  A    between atoms: O_4  and  C_27
REMARK    5  A    between atoms: O_4  and  C_29
REMARK    6  A    between atoms: C_5  and  C_7
REMARK    7  A    between atoms: O_6  and  C_31
REMARK    8  A    between atoms: O_6  and  C_33
REMARK    9  A    between atoms: C_7  and  C_9
REMARK   10  A    between atoms: O_8  and  C_35
REMARK   11  A    between atoms: O_8  and  C_37
REMARK   12  A    between atoms: C_9  and  C_11
REMARK   13  A    between atoms: O_10  and  C_39
REMARK   14  A    between atoms: O_10  and  C_41
REMARK   15  A    between atoms: C_11  and  C_13
REMARK   16  A    between atoms: O_12  and  C_43
REMARK   17  A    between atoms: O_12  and  C_45
REMARK   18  A    between atoms: C_13  and  C_15
REMARK   19  A    between atoms: O_14  and  C_47
REMARK   20  A    between atoms: O_14  and  C_49
REMARK   21  A    between atoms: C_15  and  C_17
REMARK   22  A    between atoms: O_16  and  C_50
REMARK   23  A    between atoms: O_16  and  C_51
REMARK   24  A    between atoms: C_17  and  C_19
REMARK   25  A    between atoms: O_18  and  C_52
REMARK   26  A    between atoms: O_18  and  C_53
REMARK   27  A    between atoms: C_19  and  C_21
REMARK   28  A    between atoms: O_20  and  C_54
REMARK   29  A    between atoms: O_20  and  C_55
REMARK   30  A    between atoms: C_21  and  C_23
REMARK   31  A    between atoms: O_22  and  C_56
REMARK   32  A    between atoms: O_22  and  C_57
REMARK   33  A    between atoms: O_24  and  C_58
REMARK   34  A    between atoms: O_24  and  C_59
REMARK   35  A    between atoms: C_25  and  C_27
REMARK   36  A    between atoms: O_26  and  C_60
REMARK   37  A    between atoms: O_26  and  C_61
REMARK   38  A    between atoms: O_28  and  C_62
REMARK   39  A    between atoms: O_28  and  C_63
REMARK   40  A    between atoms: C_29  and  C_31
REMARK   41  A    between atoms: O_30  and  C_64
REMARK   42  A    between atoms: O_30  and  C_65
REMARK   43  A    between atoms: O_32  and  C_66
REMARK   44  A    between atoms: O_32  and  C_67
REMARK   45  A    between atoms: C_33  and  C_35
REMARK   46  A    between atoms: O_34  and  C_68
REMARK   47  A    between atoms: O_34  and  C_69
REMARK   48  A    between atoms: O_36  and  C_70
REMARK   49  A    between atoms: O_36  and  C_71
REMARK   50  A    between atoms: C_37  and  C_39
REMARK   51  A    between atoms: O_38  and  C_72
REMARK   52  A    between atoms: O_38  and  C_73
REMARK   53  A    between atoms: O_40  and  C_74
REMARK   54  A    between atoms: O_40  and  C_75
REMARK   55  A    between atoms: C_41  and  C_43
REMARK   56  A    between atoms: O_42  and  C_76
REMARK   57  A    between atoms: O_42  and  C_77
REMARK   58  A    between atoms: O_44  and  C_78
REMARK   59  A    between atoms: O_44  and  C_79
REMARK   60  A    between atoms: C_45  and  C_47
REMARK   61  A    between atoms: O_46  and  C_80
REMARK   62  A    between atoms: O_46  and  C_81
REMARK   63  A    between atoms: C_49  and  C_50
REMARK   64  A    between atoms: C_51  and  C_52
REMARK   65  A    between atoms: C_53  and  C_54
REMARK   66  A    between atoms: C_55  and  C_56
REMARK   67  A    between atoms: C_57  and  C_58
REMARK   68  A    between atoms: C_59  and  C_60
REMARK   69  A    between atoms: C_61  and  C_62
REMARK   70  A    between atoms: C_63  and  C_64
REMARK   71  A    between atoms: C_65  and  C_66
REMARK   72  A    between atoms: C_67  and  C_68
REMARK   73  A    between atoms: C_69  and  C_70
REMARK   74  A    between atoms: C_71  and  C_72
REMARK   75  A    between atoms: C_73  and  C_74
REMARK   76  A    between atoms: C_75  and  C_76
REMARK   77  A    between atoms: C_77  and  C_78
REMARK   78  A    between atoms: C_79  and  C_80
REMARK   79  A    between atoms: C_81  and  C_82
REMARK                            x       y       z     vdW  Elec       q    Type
REMARK                         _______ _______ _______ _____ _____    ______ ____
ROOT
ATOM      1  C   UNL     1     -16.885  12.426  23.011  0.00  0.00    +0.000 C 
ENDROOT
BRANCH   1   2
ATOM      2  C   UNL     1     -16.910  13.922  22.750  0.00  0.00    +0.000 C 
BRANCH   2   3
ATOM      3  O   UNL     1     -15.595  14.493  22.875  0.00  0.00    +0.000 OA
BRANCH   3   4
ATOM      4  C   UNL     1     -15.510  15.262  24.086  0.00  0.00    +0.000 C 
BRANCH   4   5
ATOM      5  C   UNL     1     -14.148  15.135  24.740  0.00  0.00    +0.000 C 
BRANCH   5   6
ATOM      6  O   UNL     1     -13.287  14.412  23.834  0.00  0.00    +0.000 OA
BRANCH   6   7
ATOM      7  C   UNL     1     -11.944  14.289  24.296  0.00  0.00    +0.000 C 
BRANCH   7   8
ATOM      8  C   UNL     1     -11.664  15.338  25.382  0.00  0.00    +0.000 C 
BRANCH   8   9
ATOM      9  O   UNL     1     -10.827  14.776  26.413  0.00  0.00    +0.000 OA
BRANCH   9  10
ATOM     10  C   UNL     1     -11.555  14.049  27.385  0.00  0.00    +0.000 C 
BRANCH  10  11
ATOM     11  C   UNL     1     -10.603  13.393  28.421  0.00  0.00    +0.000 C 
BRANCH  11  12
ATOM     12  O   UNL     1     -11.322  12.445  29.198  0.00  0.00    +0.000 OA
BRANCH  12  13
ATOM     13  C   UNL     1     -11.393  11.128  28.665  0.00  0.00    +0.000 C 
BRANCH  13  14
ATOM     14  C   UNL     1     -11.431  10.121  29.848  0.00  0.00    +0.000 C 
BRANCH  14  15
ATOM     15  O   UNL     1     -10.791  10.645  31.026  0.00  0.00    +0.000 OA
BRANCH  15  16
ATOM     16  C   UNL     1      -9.534  10.104  31.340  0.00  0.00    +0.000 C 
BRANCH  16  17
ATOM     17  C   UNL     1      -8.488  11.162  31.064  0.00  0.00    +0.000 C 
BRANCH  17  18
ATOM     18  O   UNL     1      -7.430  10.664  30.231  0.00  0.00    +0.000 OA
BRANCH  18  19
ATOM     19  C   UNL     1      -7.672  10.790  28.862  0.00  0.00    +0.000 C 
BRANCH  19  20
ATOM     20  C   UNL     1      -7.413   9.473  28.151  0.00  0.00    +0.000 C 
BRANCH  20  21
ATOM     21  O   UNL     1      -8.597   8.691  28.178  0.00  0.00    +0.000 OA
BRANCH  21  22
ATOM     22  C   UNL     1      -8.372   7.470  28.817  0.00  0.00    +0.000 C 
BRANCH  22  23
ATOM     23  C   UNL     1      -9.724   6.881  29.241  0.00  0.00    +0.000 C 
BRANCH  23  24
ATOM     24  O   UNL     1     -10.659   7.007  28.183  0.00  0.00    +0.000 OA
BRANCH  24  25
ATOM     25  C   UNL     1     -10.574   5.929  27.253  0.00  0.00    +0.000 C 
BRANCH  25  26
ATOM     26  C   UNL     1     -10.866   6.498  25.845  0.00  0.00    +0.000 C 
BRANCH  26  27
ATOM     27  O   UNL     1     -10.510   5.518  24.870  0.00  0.00    +0.000 OA
BRANCH  27  28
ATOM     28  C   UNL     1      -9.658   6.009  23.864  0.00  0.00    +0.000 C 
BRANCH  28  29
ATOM     29  C   UNL     1      -9.503   5.047  22.717  0.00  0.00    +0.000 C 
BRANCH  29  30
ATOM     30  O   UNL     1      -8.148   4.837  22.453  0.00  0.00    +0.000 OA
BRANCH  30  31
ATOM     31  C   UNL     1      -7.903   3.687  21.666  0.00  0.00    +0.000 C 
BRANCH  31  32
ATOM     32  C   UNL     1      -6.684   2.974  22.210  0.00  0.00    +0.000 C 
BRANCH  32  33
ATOM     33  O   UNL     1      -5.537   3.623  21.728  0.00  0.00    +0.000 OA
BRANCH  33  34
ATOM     34  C   UNL     1      -4.590   3.864  22.715  0.00  0.00    +0.000 C 
BRANCH  34  35
ATOM     35  C   UNL     1      -3.500   4.752  22.151  0.00  0.00    +0.000 C 
BRANCH  35  36
ATOM     36  O   UNL     1      -2.244   4.330  22.664  0.00  0.00    +0.000 OA
BRANCH  36  37
ATOM     37  C   UNL     1      -2.264   4.232  24.070  0.00  0.00    +0.000 C 
BRANCH  37  38
ATOM     38  C   UNL     1      -1.068   5.015  24.641  0.00  0.00    +0.000 C 
BRANCH  38  39
ATOM     39  O   UNL     1      -1.552   6.288  24.985  0.00  0.00    +0.000 OA
BRANCH  39  40
ATOM     40  C   UNL     1      -1.034   7.308  24.086  0.00  0.00    +0.000 C 
BRANCH  40  42
ATOM     41  O   UNL     1       0.917   8.665  23.711  0.00  0.00    +0.000 OA
ATOM     42  C   UNL     1       0.255   7.855  24.674  0.00  0.00    +0.000 C 
ENDBRANCH  40  42
ENDBRANCH  39  40
ENDBRANCH  38  39
ENDBRANCH  37  38
ENDBRANCH  36  37
ENDBRANCH  35  36
ENDBRANCH  34  35
ENDBRANCH  33  34
ENDBRANCH  32  33
ENDBRANCH  31  32
ENDBRANCH  30  31
ENDBRANCH  29  30
ENDBRANCH  28  29
ENDBRANCH  27  28
ENDBRANCH  26  27
ENDBRANCH  25  26
ENDBRANCH  24  25
ENDBRANCH  23  24
ENDBRANCH  22  23
ENDBRANCH  21  22
ENDBRANCH  20  21
ENDBRANCH  19  20
ENDBRANCH  18  19
ENDBRANCH  17  18
ENDBRANCH  16  17
ENDBRANCH  15  16
ENDBRANCH  14  15
ENDBRANCH  13  14
ENDBRANCH  12  13
ENDBRANCH  11  12
ENDBRANCH  10  11
ENDBRANCH   9  10
ENDBRANCH   8   9
ENDBRANCH   7   8
ENDBRANCH   6   7
ENDBRANCH   5   6
ENDBRANCH   4   5
ENDBRANCH   3   4
ENDBRANCH   2   3
ENDBRANCH   1   2
BRANCH   1  43
ATOM     43  O   UNL     1     -18.141  11.839  22.702  0.00  0.00    +0.000 OA
BRANCH  43  44
ATOM     44  C   UNL     1     -18.098  10.453  22.688  0.00  0.00    +0.000 C 
BRANCH  44  45
ATOM     45  C   UNL     1     -17.455   9.949  23.983  0.00  0.00    +0.000 C 
BRANCH  45  46
ATOM     46  O   UNL     1     -16.594   8.860  23.664  0.00  0.00    +0.000 OA
BRANCH  46  47
ATOM     47  C   UNL     1     -16.128   8.825  22.350  0.00  0.00    +0.000 C 
BRANCH  47  48
ATOM     48  C   UNL     1     -14.642   9.217  22.315  0.00  0.00    +0.000 C 
BRANCH  48  49
ATOM     49  O   UNL     1     -14.020   8.711  23.443  0.00  0.00    +0.000 OA
BRANCH  49  50
ATOM     50  C   UNL     1     -12.618   8.571  23.256  0.00  0.00    +0.000 C 
BRANCH  50  51
ATOM     51  C   UNL     1     -12.365   7.794  21.969  0.00  0.00    +0.000 C 
BRANCH  51  52
ATOM     52  O   UNL     1     -11.161   8.289  21.349  0.00  0.00    +0.000 OA
BRANCH  52  53
ATOM     53  C   UNL     1     -11.085   7.864  19.985  0.00  0.00    +0.000 C 
BRANCH  53  54
ATOM     54  C   UNL     1     -11.255   6.339  19.909  0.00  0.00    +0.000 C 
BRANCH  54  55
ATOM     55  O   UNL     1     -10.804   5.889  18.625  0.00  0.00    +0.000 OA
BRANCH  55  56
ATOM     56  C   UNL     1     -10.267   6.962  17.867  0.00  0.00    +0.000 C 
BRANCH  56  57
ATOM     57  C   UNL     1     -10.064   6.453  16.467  0.00  0.00    +0.000 C 
BRANCH  57  58
ATOM     58  O   UNL     1      -8.750   5.938  16.328  0.00  0.00    +0.000 OA
BRANCH  58  59
ATOM     59  C   UNL     1      -8.720   4.742  15.621  0.00  0.00    +0.000 C 
BRANCH  59  60
ATOM     60  C   UNL     1     -10.135   4.396  15.185  0.00  0.00    +0.000 C 
BRANCH  60  61
ATOM     61  O   UNL     1     -10.075   3.371  14.205  0.00  0.00    +0.000 OA
BRANCH  61  62
ATOM     62  C   UNL     1     -11.320   2.753  13.974  0.00  0.00    +0.000 C 
BRANCH  62  63
ATOM     63  C   UNL     1     -12.317   3.244  15.032  0.00  0.00    +0.000 C 
BRANCH  63  64
ATOM     64  O   UNL     1     -13.164   2.141  15.337  0.00  0.00    +0.000 OA
BRANCH  64  65
ATOM     65  C   UNL     1     -13.229   1.241  14.317  0.00  0.00    +0.000 C 
BRANCH  65  66
ATOM     66  C   UNL     1     -13.546  -0.180  14.839  0.00  0.00    +0.000 C 
BRANCH  66  67
ATOM     67  O   UNL     1     -12.918  -1.122  13.968  0.00  0.00    +0.000 OA
BRANCH  67  68
ATOM     68  C   UNL     1     -13.876  -1.846  13.195  0.00  0.00    +0.000 C 
BRANCH  68  69
ATOM     69  C   UNL     1     -13.594  -1.478  11.723  0.00  0.00    +0.000 C 
BRANCH  69  70
ATOM     70  O   UNL     1     -14.672  -0.593  11.339  0.00  0.00    +0.000 OA
BRANCH  70  71
ATOM     71  C   UNL     1     -15.801  -0.856  12.157  0.00  0.00    +0.000 C 
BRANCH  71  72
ATOM     72  C   UNL     1     -16.981  -0.056  11.520  0.00  0.00    +0.000 C 
BRANCH  72  73
ATOM     73  C   UNL     1     -17.032  -0.468  10.051  0.00  0.00    +0.000 C 
BRANCH  73  74
ATOM     74  C   UNL     1     -17.008   0.799   9.192  0.00  0.00    +0.000 C 
BRANCH  74  75
ATOM     75  C   UNL     1     -18.411   1.176   8.803  0.00  0.00    +0.000 C 
BRANCH  75  76
ATOM     76  C   UNL     1     -18.356   2.202   7.710  0.00  0.00    +0.000 C 
BRANCH  76  77
ATOM     77  C   UNL     1     -16.928   2.698   7.586  0.00  0.00    +0.000 C 
BRANCH  77  78
ATOM     78  C   UNL     1     -16.891   4.187   7.935  0.00  0.00    +0.000 C 
BRANCH  78  79
ATOM     79  C   UNL     1     -15.674   4.481   8.797  0.00  0.00    +0.000 C 
BRANCH  79  80
ATOM     80  C   UNL     1     -16.033   4.523  10.257  0.00  0.00    +0.000 C 
BRANCH  80  82
ATOM     81  C   UNL     1     -15.644   3.466  12.465  0.00  0.00    +0.000 C 
ATOM     82  C   UNL     1     -15.425   3.345  10.972  0.00  0.00    +0.000 C 
ENDBRANCH  80  82
ENDBRANCH  79  80
ENDBRANCH  78  79
ENDBRANCH  77  78
ENDBRANCH  76  77
ENDBRANCH  75  76
ENDBRANCH  74  75
ENDBRANCH  73  74
ENDBRANCH  72  73
ENDBRANCH  71  72
ENDBRANCH  70  71
ENDBRANCH  69  70
ENDBRANCH  68  69
ENDBRANCH  67  68
ENDBRANCH  66  67
ENDBRANCH  65  66
ENDBRANCH  64  65
ENDBRANCH  63  64
ENDBRANCH  62  63
ENDBRANCH  61  62
ENDBRANCH  60  61
ENDBRANCH  59  60
ENDBRANCH  58  59
ENDBRANCH  57  58
ENDBRANCH  56  57
ENDBRANCH  55  56
ENDBRANCH  54  55
ENDBRANCH  53  54
ENDBRANCH  52  53
ENDBRANCH  51  52
ENDBRANCH  50  51
ENDBRANCH  49  50
ENDBRANCH  48  49
ENDBRANCH  47  48
ENDBRANCH  46  47
ENDBRANCH  45  46
ENDBRANCH  44  45
ENDBRANCH  43  44
ENDBRANCH   1  43
TORSDOF 79
BEGIN_RES LEU A  10
REMARK  2 active torsions:
REMARK  status: ('A' for Active; 'I' for Inactive)
REMARK    1  A    between atoms: CA   and  CB  
REMARK    2  A    between atoms: CB   and  CG  
ROOT
ATOM      1  CA  LEU A  10     -10.775  -4.871   5.898  1.00 25.14     0.177 C 
ENDROOT
BRANCH   1   2
ATOM      2  CB  LEU A  10     -12.191  -4.387   6.226  1.00 17.87     0.038 C 
BRANCH   2   3
ATOM      3  CG  LEU A  10     -12.391  -2.876   6.090  1.00 24.95    -0.020 C 
ATOM      4  CD2 LEU A  10     -12.615  -2.291   7.444  1.00 26.38     0.009 C 
ATOM      5  CD1 LEU A  10     -13.560  -2.563   5.172  1.00 28.12     0.009 C 
ENDBRANCH   2   3
ENDBRANCH   1   2
END_RES LEU A  10
BEGIN_RES CYS A  12
REMARK  2 active torsions:
REMARK  status: ('A' for Active; 'I' for Inactive)
REMARK    3  A    between atoms: CA   and  CB  
REMARK    4  A    between atoms: CB   and  SG  
ROOT
ATOM      6  CA  CYS A  12      -8.555   0.470   8.750  1.00 23.16     0.185 C 
ENDROOT
BRANCH   6   7
ATOM      7  CB  CYS A  12      -9.828   0.763   9.555  1.00 20.43     0.105 C 
BRANCH   7   8
ATOM      8  SG  CYS A  12     -10.663   2.337   9.187  1.00 24.64    -0.180 SA
ATOM      9  H04 CYS A  12     -11.502   2.642  10.185  1.00 24.64     0.101 HD
ENDBRANCH   7   8
ENDBRANCH   6   7
END_RES CYS A  12
BEGIN_RES GLN A  14
REMARK  3 active torsions:
REMARK  status: ('A' for Active; 'I' for Inactive)
REMARK    5  A    between atoms: CA   and  CB  
REMARK    6  A    between atoms: CB   and  CG  
REMARK    7  A    between atoms: CG   and  CD  
REMARK       I    between atoms: CD   and  NE2 
ROOT
ATOM     10  CA  GLN A  14      -4.645   5.402  11.377  1.00 10.43     0.177 C 
ENDROOT
BRANCH  10  11
ATOM     11  CB  GLN A  14      -5.541   5.549  12.608  1.00 14.45     0.044 C 
BRANCH  11  12
ATOM     12  CG  GLN A  14      -6.332   6.836  12.645  1.00 13.74     0.105 C 
BRANCH  12  13
ATOM     13  CD  GLN A  14      -5.861   7.773  13.732  1.00 16.29     0.215 C 
ATOM     14  NE2 GLN A  14      -5.011   8.709  13.370  1.00  8.57    -0.370 N 
ATOM     15  H06 GLN A  14      -4.662   9.365  14.054  1.00  8.57     0.159 HD
ATOM     16  H07 GLN A  14      -4.707   8.772  12.409  1.00  8.57     0.159 HD
ATOM     17  OE1 GLN A  14      -6.259   7.656  14.880  1.00 23.55    -0.274 OA
ENDBRANCH  12  13
ENDBRANCH  11  12
ENDBRANCH  10  11
END_RES GLN A  14
BEGIN_RES SER A  16
REMARK  2 active torsions:
REMARK  status: ('A' for Active; 'I' for Inactive)
REMARK    8  A    between atoms: CA   and  CB  
REMARK    9  A    between atoms: CB   and  OG  
ROOT
ATOM     18  CA  SER A  16      -1.305  10.019  14.282  1.00  2.34     0.200 C 
ENDROOT
BRANCH  18  19
ATOM     19  CB  SER A  16      -2.242   9.935  15.479  1.00  3.12     0.199 C 
BRANCH  19  20
ATOM     20  OG  SER A  16      -2.652   8.595  15.690  1.00  1.00    -0.398 OA
ATOM     21  H04 SER A  16      -1.952   7.999  15.415  1.00  1.00     0.209 HD
ENDBRANCH  19  20
ENDBRANCH  18  19
END_RES SER A  16
BEGIN_RES LEU A  32
REMARK  2 active torsions:
REMARK  status: ('A' for Active; 'I' for Inactive)
REMARK   10  A    between atoms: CA   and  CB  
REMARK   11  A    between atoms: CB   and  CG  
ROOT
ATOM     22  CA  LEU A  32     -10.272  -4.106   1.587  1.00 16.16     0.177 C 
ENDROOT
BRANCH  22  23
ATOM     23  CB  LEU A  32     -11.613  -3.858   0.880  1.00 12.35     0.038 C 
BRANCH  23  24
ATOM     24  CG  LEU A  32     -12.678  -4.896   1.288  1.00  9.77    -0.020 C 
ATOM     25  CD1 LEU A  32     -12.423  -6.212   0.593  1.00  4.35     0.009 C 
ATOM     26  CD2 LEU A  32     -12.683  -5.102   2.780  1.00 10.60     0.009 C 
ENDBRANCH  23  24
ENDBRANCH  22  23
END_RES LEU A  32
BEGIN_RES HIS A  38
REMARK  2 active torsions:
REMARK  status: ('A' for Active; 'I' for Inactive)
REMARK   12  A    between atoms: CA   and  CB  
REMARK   13  A    between atoms: CB   and  CG  
ROOT
ATOM     27  CA  HIS A  38     -10.959   4.941   1.621  1.00 16.94     0.182 C 
ENDROOT
BRANCH  27  28
ATOM     28  CB  HIS A  38     -11.810   4.840   2.881  1.00 15.47     0.095 C 
BRANCH  28  29
ATOM     29  CG  HIS A  38     -12.975   3.913   2.750  1.00 18.62     0.053 A 
ATOM     30  CD2 HIS A  38     -14.133   4.033   2.059  1.00 15.06     0.116 A 
ATOM     31  NE2 HIS A  38     -14.842   2.876   2.258  1.00 18.12    -0.359 N 
ATOM     32  CE1 HIS A  38     -14.148   2.075   3.043  1.00 14.78     0.207 A 
ATOM     33  H06 HIS A  38     -15.751   2.671   1.867  1.00 18.12     0.166 HD
ATOM     34  ND1 HIS A  38     -13.017   2.676   3.355  1.00 16.58    -0.247 NA
ENDBRANCH  28  29
ENDBRANCH  27  28
END_RES HIS A  38
BEGIN_RES TRP A  63
REMARK  2 active torsions:
REMARK  status: ('A' for Active; 'I' for Inactive)
REMARK   14  A    between atoms: CA   and  CB  
REMARK   15  A    between atoms: CB   and  CG  
ROOT
ATOM     35  CA  TRP A  63     -22.437   6.257   6.543  1.00 27.04     0.181 C 
ENDROOT
BRANCH  35  36
ATOM     36  CB  TRP A  63     -22.360   6.642   5.068  1.00 31.37     0.075 C 
BRANCH  36  37
ATOM     37  CG  TRP A  63     -20.957   6.883   4.553  1.00 34.37    -0.028 A 
ATOM     38  CD2 TRP A  63     -19.885   5.932   4.476  1.00 33.79    -0.002 A 
ATOM     39  CE3 TRP A  63     -19.741   4.597   4.860  1.00 32.99     0.014 A 
ATOM     40  CE2 TRP A  63     -18.792   6.585   3.866  1.00 35.84     0.042 A 
ATOM     41  CZ3 TRP A  63     -18.528   3.964   4.628  1.00 32.93     0.001 A 
ATOM     42  CH2 TRP A  63     -17.459   4.640   4.019  1.00 39.24     0.002 A 
ATOM     43  CZ2 TRP A  63     -17.572   5.948   3.631  1.00 37.99     0.030 A 
ATOM     44  NE1 TRP A  63     -19.184   7.866   3.590  1.00 37.98    -0.365 N 
ATOM     45  H06 TRP A  63     -18.612   8.573   3.151  1.00 37.98     0.165 HD
ATOM     46  CD1 TRP A  63     -20.482   8.034   4.008  1.00 38.16     0.096 A 
ENDBRANCH  36  37
ENDBRANCH  35  36
END_RES TRP A  63
BEGIN_RES LEU A  66
REMARK  2 active torsions:
REMARK  status: ('A' for Active; 'I' for Inactive)
REMARK   16  A    between atoms: CA   and  CB  
REMARK   17  A    between atoms: CB   and  CG  
ROOT
ATOM     47  CA  LEU A  66     -20.004   6.489  11.120  1.00 10.90     0.177 C 
ENDROOT
BRANCH  47  48
ATOM     48  CB  LEU A  66     -19.626   5.453  10.069  1.00 13.57     0.038 C 
BRANCH  48  49
ATOM     49  CG  LEU A  66     -19.595   3.990  10.509  1.00  8.73    -0.020 C 
ATOM     50  CD1 LEU A  66     -19.298   3.884  11.982  1.00 14.23     0.009 C 
ATOM     51  CD2 LEU A  66     -20.935   3.371  10.206  1.00  1.92     0.009 C 
ENDBRANCH  48  49
ENDBRANCH  47  48
END_RES LEU A  66
BEGIN_RES PHE A  70
REMARK  2 active torsions:
REMARK  status: ('A' for Active; 'I' for Inactive)
REMARK   18  A    between atoms: CA   and  CB  
REMARK   19  A    between atoms: CB   and  CG  
ROOT
ATOM     52  CA  PHE A  70     -14.974   9.434  13.165  1.00  8.78     0.180 C 
ENDROOT
BRANCH  52  53
ATOM     53  CB  PHE A  70     -14.707   9.132  11.681  1.00  6.33     0.073 C 
BRANCH  53  54
ATOM     54  CG  PHE A  70     -13.946   7.854  11.458  1.00  3.42    -0.056 A 
ATOM     55  CD1 PHE A  70     -13.506   7.087  12.527  1.00 13.88     0.007 A 
ATOM     56  CE1 PHE A  70     -12.755   5.918  12.312  1.00 12.71     0.001 A 
ATOM     57  CZ  PHE A  70     -12.441   5.514  11.015  1.00  4.21     0.000 A 
ATOM     58  CE2 PHE A  70     -12.876   6.268   9.941  1.00  2.83     0.001 A 
ATOM     59  CD2 PHE A  70     -13.627   7.435  10.166  1.00  1.00     0.007 A 
ENDBRANCH  53  54
ENDBRANCH  52  53
END_RES PHE A  70
BEGIN_RES TYR A  73
REMARK  3 active torsions:
REMARK  status: ('A' for Active; 'I' for Inactive)
REMARK   20  A    between atoms: CA   and  CB  
REMARK   21  A    between atoms: CB   and  CG  
REMARK   22  A    between atoms: CZ   and  OH  
ROOT
ATOM     60  CA  TYR A  73     -13.212  10.166  17.260  1.00 12.17     0.180 C 
ENDROOT
BRANCH  60  61
ATOM     61  CB  TYR A  73     -13.301   8.846  16.517  1.00 12.84     0.073 C 
BRANCH  61  62
ATOM     62  CG  TYR A  73     -13.851   7.743  17.351  1.00 15.89    -0.056 A 
ATOM     63  CD1 TYR A  73     -14.379   7.990  18.599  1.00 16.00     0.010 A 
ATOM     64  CE1 TYR A  73     -14.867   6.954  19.395  1.00 13.55     0.037 A 
ATOM     65  CZ  TYR A  73     -14.818   5.658  18.923  1.00 18.13     0.065 A 
ATOM     66  CE2 TYR A  73     -14.297   5.384  17.680  1.00 15.89     0.037 A 
ATOM     67  CD2 TYR A  73     -13.816   6.428  16.900  1.00 21.86     0.010 A 
BRANCH  65  68
ATOM     68  OH  TYR A  73     -15.298   4.623  19.688  1.00 12.12    -0.361 OA
ATOM     69  H08 TYR A  73     -16.167   4.851  20.027  1.00 12.12     0.217 HD
ENDBRANCH  65  68
ENDBRANCH  61  62
ENDBRANCH  60  61
END_RES TYR A  73
BEGIN_RES PHE A  77
REMARK  2 active torsions:
REMARK  status: ('A' for Active; 'I' for Inactive)
REMARK   23  A    between atoms: CA   and  CB  
REMARK   24  A    between atoms: CB   and  CG  
ROOT
ATOM     70  CA  PHE A  77      -8.400  10.581  20.110  1.00 17.17     0.180 C 
ENDROOT
BRANCH  70  71
ATOM     71  CB  PHE A  77      -8.228   9.750  18.851  1.00 10.44     0.073 C 
BRANCH  71  72
ATOM     72  CG  PHE A  77      -7.170   8.698  18.963  1.00  6.07    -0.056 A 
ATOM     73  CD2 PHE A  77      -7.325   7.639  19.828  1.00  9.61     0.007 A 
ATOM     74  CE2 PHE A  77      -6.348   6.656  19.938  1.00  1.00     0.001 A 
ATOM     75  CZ  PHE A  77      -5.201   6.733  19.167  1.00  1.92     0.000 A 
ATOM     76  CE1 PHE A  77      -5.031   7.785  18.295  1.00  9.25     0.001 A 
ATOM     77  CD1 PHE A  77      -6.018   8.765  18.197  1.00  9.63     0.007 A 
ENDBRANCH  71  72
ENDBRANCH  70  71
END_RES PHE A  77
BEGIN_RES LEU A  96
REMARK  2 active torsions:
REMARK  status: ('A' for Active; 'I' for Inactive)
REMARK   25  A    between atoms: CA   and  CB  
REMARK   26  A    between atoms: CB   and  CG  
ROOT
ATOM     78  CA  LEU A  96       0.717   6.481  17.359  1.00 16.08     0.177 C 
ENDROOT
BRANCH  78  79
ATOM     79  CB  LEU A  96      -0.370   7.101  18.230  1.00 18.83     0.038 C 
BRANCH  79  80
ATOM     80  CG  LEU A  96      -0.095   7.033  19.732  1.00 19.03    -0.020 C 
ATOM     81  CD1 LEU A  96       0.689   8.259  20.140  1.00 28.17     0.009 C 
ATOM     82  CD2 LEU A  96      -1.394   7.016  20.505  1.00 22.01     0.009 C 
ENDBRANCH  79  80
ENDBRANCH  78  79
END_RES LEU A  96
BEGIN_RES VAL A  98
REMARK  1 active torsions:
REMARK  status: ('A' for Active; 'I' for Inactive)
REMARK   27  A    between atoms: CA   and  CB  
ROOT
ATOM     83  CA  VAL A  98      -3.928   2.082  14.897  1.00 19.83     0.180 C 
ENDROOT
BRANCH  83  84
ATOM     84  CB  VAL A  98      -5.203   2.807  15.281  1.00 17.87     0.009 C 
ATOM     85  CG2 VAL A  98      -4.912   4.263  15.538  1.00 29.90     0.012 C 
ATOM     86  CG1 VAL A  98      -5.807   2.155  16.507  1.00 14.79     0.012 C 
ENDBRANCH  83  84
END_RES VAL A  98
BEGIN_RES ASN A 112
REMARK  2 active torsions:
REMARK  status: ('A' for Active; 'I' for Inactive)
REMARK   28  A    between atoms: CA   and  CB  
REMARK   29  A    between atoms: CB   and  CG  
REMARK       I    between atoms: CG   and  ND2 
ROOT
ATOM     87  CA  ASN A 112     -11.790  -8.793  14.069  1.00 37.70     0.185 C 
ENDROOT
BRANCH  87  88
ATOM     88  CB  ASN A 112     -12.992  -7.945  14.465  1.00 26.24     0.137 C 
BRANCH  88  89
ATOM     89  CG  ASN A 112     -13.805  -8.556  15.584  1.00 21.77     0.217 C 
ATOM     90  ND2 ASN A 112     -14.949  -9.140  15.228  1.00  9.31    -0.370 N 
ATOM     91  H04 ASN A 112     -15.539  -9.565  15.930  1.00  9.31     0.159 HD
ATOM     92  H05 ASN A 112     -15.226  -9.158  14.257  1.00  9.31     0.159 HD
ATOM     93  OD1 ASN A 112     -13.416  -8.501  16.757  1.00 21.61    -0.274 OA
ENDBRANCH  88  89
ENDBRANCH  87  88
END_RES ASN A 112
BEGIN_RES PHE A 114
REMARK  2 active torsions:
REMARK  status: ('A' for Active; 'I' for Inactive)
REMARK   30  A    between atoms: CA   and  CB  
REMARK   31  A    between atoms: CB   and  CG  
ROOT
ATOM     94  CA  PHE A 114      -7.754  -3.619  17.012  1.00 26.06     0.180 C 
ENDROOT
BRANCH  94  95
ATOM     95  CB  PHE A 114      -8.890  -3.080  17.867  1.00 19.95     0.073 C 
BRANCH  95  96
ATOM     96  CG  PHE A 114      -9.217  -1.650  17.583  1.00 17.65    -0.056 A 
ATOM     97  CD1 PHE A 114      -8.208  -0.702  17.442  1.00 13.01     0.007 A 
ATOM     98  CE1 PHE A 114      -8.512   0.633  17.208  1.00  6.74     0.001 A 
ATOM     99  CZ  PHE A 114      -9.840   1.038  17.108  1.00  6.27     0.000 A 
ATOM    100  CE2 PHE A 114     -10.853   0.103  17.246  1.00 17.36     0.001 A 
ATOM    101  CD2 PHE A 114     -10.540  -1.239  17.483  1.00 18.39     0.007 A 
ENDBRANCH  95  96
ENDBRANCH  94  95
END_RES PHE A 114
BEGIN_RES VAL A 116
REMARK  1 active torsions:
REMARK  status: ('A' for Active; 'I' for Inactive)
REMARK   32  A    between atoms: CA   and  CB  
ROOT
ATOM    102  CA  VAL A 116      -2.467   0.283  18.565  1.00 13.48     0.180 C 
ENDROOT
BRANCH 102 103
ATOM    103  CB  VAL A 116      -3.101   1.238  19.599  1.00 20.86     0.009 C 
ATOM    104  CG1 VAL A 116      -3.066   2.671  19.061  1.00 25.01     0.012 C 
ATOM    105  CG2 VAL A 116      -4.508   0.806  19.940  1.00 25.34     0.012 C 
ENDBRANCH 102 103
END_RES VAL A 116
BEGIN_RES ILE A 123
REMARK  2 active torsions:
REMARK  status: ('A' for Active; 'I' for Inactive)
REMARK   33  A    between atoms: CA   and  CB  
REMARK   34  A    between atoms: CB   and  CG1 
ROOT
ATOM    106  CA  ILE A 123       1.557  -1.626  23.222  1.00 15.07     0.180 C 
ENDROOT
BRANCH 106 107
ATOM    107  CB  ILE A 123       1.697  -0.112  23.461  1.00 14.41     0.013 C 
ATOM    108  CG2 ILE A 123       3.112   0.213  23.906  1.00 18.35     0.012 C 
BRANCH 107 109
ATOM    109  CG1 ILE A 123       1.353   0.659  22.189  1.00 15.23     0.002 C 
ATOM    110  CD1 ILE A 123       0.253   1.676  22.376  1.00 14.67     0.005 C 
ENDBRANCH 107 109
ENDBRANCH 106 107
END_RES ILE A 123
BEGIN_RES LEU A 124
REMARK  2 active torsions:
REMARK  status: ('A' for Active; 'I' for Inactive)
REMARK   35  A    between atoms: CA   and  CB  
REMARK   36  A    between atoms: CB   and  CG  
ROOT
ATOM    111  CA  LEU A 124      -2.057  -2.686  23.524  1.00 11.86     0.177 C 
ENDROOT
BRANCH 111 112
ATOM    112  CB  LEU A 124      -2.698  -1.652  24.429  1.00 14.60     0.038 C 
BRANCH 112 113
ATOM    113  CG  LEU A 124      -2.598  -0.248  23.853  1.00 16.19    -0.020 C 
ATOM    114  CD1 LEU A 124      -4.004   0.224  23.434  1.00 22.07     0.009 C 
ATOM    115  CD2 LEU A 124      -1.977   0.672  24.874  1.00  9.12     0.009 C 
ENDBRANCH 112 113
ENDBRANCH 111 112
END_RES LEU A 124
BEGIN_RES PHE A 126
REMARK  2 active torsions:
REMARK  status: ('A' for Active; 'I' for Inactive)
REMARK   37  A    between atoms: CA   and  CB  
REMARK   38  A    between atoms: CB   and  CG  
ROOT
ATOM    116  CA  PHE A 126      -8.784  -4.792  22.233  1.00 23.15     0.180 C 
ENDROOT
BRANCH 116 117
ATOM    117  CB  PHE A 126      -9.823  -4.011  21.461  1.00 20.65     0.073 C 
BRANCH 117 118
ATOM    118  CG  PHE A 126     -10.953  -3.549  22.295  1.00 23.65    -0.056 A 
ATOM    119  CD2 PHE A 126     -12.212  -4.106  22.149  1.00 36.63     0.007 A 
ATOM    120  CE2 PHE A 126     -13.282  -3.668  22.941  1.00 36.27     0.001 A 
ATOM    121  CZ  PHE A 126     -13.083  -2.668  23.881  1.00 18.06     0.000 A 
ATOM    122  CE1 PHE A 126     -11.828  -2.112  24.031  1.00  5.50     0.001 A 
ATOM    123  CD1 PHE A 126     -10.768  -2.555  23.240  1.00 15.29     0.007 A 
ENDBRANCH 117 118
ENDBRANCH 116 117
END_RES PHE A 126
BEGIN_RES TRP A 131
REMARK  2 active torsions:
REMARK  status: ('A' for Active; 'I' for Inactive)
REMARK   39  A    between atoms: CA   and  CB  
REMARK   40  A    between atoms: CB   and  CG  
ROOT
ATOM    124  CA  TRP A 131      -8.096  -3.335  26.542  1.00 14.52     0.181 C 
ENDROOT
BRANCH 124 125
ATOM    125  CB  TRP A 131      -7.651  -1.877  26.607  1.00 13.06     0.075 C 
BRANCH 125 126
ATOM    126  CG  TRP A 131      -8.047  -1.052  25.402  1.00 16.97    -0.028 A 
ATOM    127  CD2 TRP A 131      -9.119  -0.109  25.330  1.00 11.34    -0.002 A 
ATOM    128  CE2 TRP A 131      -9.123   0.429  24.029  1.00  5.87     0.042 A 
ATOM    129  CE3 TRP A 131     -10.080   0.332  26.247  1.00  3.80     0.014 A 
ATOM    130  CZ2 TRP A 131     -10.050   1.390  23.620  1.00  1.35     0.030 A 
ATOM    131  NE1 TRP A 131      -8.100  -0.160  23.337  1.00 13.90    -0.365 N 
ATOM    132  CH2 TRP A 131     -10.980   1.805  24.540  1.00  1.00     0.002 A 
ATOM    133  CZ3 TRP A 131     -11.002   1.282  25.847  1.00  1.00     0.001 A 
ATOM    134  CD1 TRP A 131      -7.457  -1.049  24.168  1.00 17.22     0.096 A 
ATOM    135  H07 TRP A 131      -7.857   0.026  22.375  1.00 13.90     0.165 HD
ENDBRANCH 125 126
ENDBRANCH 124 125
END_RES TRP A 131
BEGIN_RES LEU A 148
REMARK  2 active torsions:
REMARK  status: ('A' for Active; 'I' for Inactive)
REMARK   41  A    between atoms: CA   and  CB  
REMARK   42  A    between atoms: CB   and  CG  
ROOT
ATOM    136  CA  LEU A 148      -9.018   3.259  29.295  1.00 16.99     0.177 C 
ENDROOT
BRANCH 136 137
ATOM    137  CB  LEU A 148      -8.166   2.574  28.236  1.00  6.39     0.038 C 
BRANCH 137 138
ATOM    138  CG  LEU A 148      -7.283   3.377  27.303  1.00  1.00    -0.020 C 
ATOM    139  CD2 LEU A 148      -7.908   3.464  25.941  1.00  1.00     0.009 C 
ATOM    140  CD1 LEU A 148      -5.929   2.696  27.226  1.00  2.71     0.009 C 
ENDBRANCH 137 138
ENDBRANCH 136 137
END_RES LEU A 148
BEGIN_RES THR A 154
REMARK  2 active torsions:
REMARK  status: ('A' for Active; 'I' for Inactive)
REMARK   43  A    between atoms: CA   and  CB  
REMARK   44  A    between atoms: CB   and  OG1 
ROOT
ATOM    141  CA  THR A 154     -15.990   3.959  24.426  1.00 20.45     0.205 C 
ENDROOT
BRANCH 141 142
ATOM    142  CB  THR A 154     -14.777   4.829  24.694  1.00 16.79     0.146 C 
ATOM    143  CG2 THR A 154     -13.618   4.397  23.816  1.00 20.24     0.042 C 
BRANCH 142 144
ATOM    144  OG1 THR A 154     -15.106   6.190  24.390  1.00 18.84    -0.393 OA
ATOM    145  H06 THR A 154     -15.495   6.606  25.163  1.00 18.84     0.210 HD
ENDBRANCH 142 144
ENDBRANCH 141 142
END_RES THR A 154
BEGIN_RES VAL A 158
REMARK  1 active torsions:
REMARK  status: ('A' for Active; 'I' for Inactive)
REMARK   45  A    between atoms: CA   and  CB  
ROOT
ATOM    146  CA  VAL A 158     -15.487  -0.189  19.892  1.00 15.49     0.180 C 
ENDROOT
BRANCH 146 147
ATOM    147  CB  VAL A 158     -14.291  -0.273  20.822  1.00  6.52     0.009 C 
ATOM    148  CG1 VAL A 158     -13.234  -1.195  20.259  1.00  1.00     0.012 C 
ATOM    149  CG2 VAL A 158     -13.740   1.105  21.020  1.00  5.99     0.012 C 
ENDBRANCH 146 147
END_RES VAL A 158
BEGIN_RES LEU A 161
REMARK  2 active torsions:
REMARK  status: ('A' for Active; 'I' for Inactive)
REMARK   46  A    between atoms: CA   and  CB  
REMARK   47  A    between atoms: CB   and  CG  
ROOT
ATOM    150  CA  LEU A 161     -18.031  -1.858  15.935  1.00 13.31     0.177 C 
ENDROOT
BRANCH 150 151
ATOM    151  CB  LEU A 161     -17.046  -0.706  16.001  1.00 14.13     0.038 C 
BRANCH 151 152
ATOM    152  CG  LEU A 161     -17.441   0.563  15.256  1.00 19.39    -0.020 C 
ATOM    153  CD2 LEU A 161     -16.799   1.768  15.899  1.00 27.75     0.009 C 
ATOM    154  CD1 LEU A 161     -18.939   0.699  15.285  1.00 18.59     0.009 C 
ENDBRANCH 151 152
ENDBRANCH 150 151
END_RES LEU A 161
BEGIN_RES GLN A 168
REMARK  3 active torsions:
REMARK  status: ('A' for Active; 'I' for Inactive)
REMARK   48  A    between atoms: CA   and  CB  
REMARK   49  A    between atoms: CB   and  CG  
REMARK   50  A    between atoms: CG   and  CD  
REMARK       I    between atoms: CD   and  NE2 
ROOT
ATOM    155  CA  GLN A 168     -22.035  -6.020   8.155  1.00 30.94     0.177 C 
ENDROOT
BRANCH 155 156
ATOM    156  CB  GLN A 168     -23.054  -5.218   8.946  1.00 41.76     0.044 C 
BRANCH 156 157
ATOM    157  CG  GLN A 168     -24.388  -5.895   9.112  1.00 61.20     0.105 C 
BRANCH 157 158
ATOM    158  CD  GLN A 168     -24.888  -5.814  10.541  1.00 75.49     0.215 C 
ATOM    159  NE2 GLN A 168     -24.028  -6.187  11.490  1.00 85.00    -0.370 N 
ATOM    160  H06 GLN A 168     -24.303  -6.158  12.461  1.00 85.00     0.159 HD
ATOM    161  H07 GLN A 168     -23.100  -6.499  11.236  1.00 85.00     0.159 HD
ATOM    162  OE1 GLN A 168     -26.038  -5.427  10.795  1.00 73.64    -0.274 OA
ENDBRANCH 157 158
ENDBRANCH 156 157
ENDBRANCH 155 156
END_RES GLN A 168
ENDMDL
