MODEL 1
REMARK VINA RESULT:      -6.6      0.000      0.000
REMARK  Name = human_CD1d_SDS_pred.rank_0
REMARK  12 active torsions:
REMARK  status: ('A' for Active; 'I' for Inactive)
REMARK    1  A    between atoms: O_2  and  S_3
REMARK    2  A    between atoms: O_2  and  C_17
REMARK    3  A    between atoms: C_4  and  C_6
REMARK    4  A    between atoms: C_6  and  C_8
REMARK    5  A    between atoms: C_8  and  C_10
REMARK    6  A    between atoms: C_10  and  C_11
REMARK    7  A    between atoms: C_11  and  C_12
REMARK    8  A    between atoms: C_12  and  C_13
REMARK    9  A    between atoms: C_13  and  C_14
REMARK   10  A    between atoms: C_14  and  C_15
REMARK   11  A    between atoms: C_15  and  C_16
REMARK   12  A    between atoms: C_16  and  C_17
REMARK                            x       y       z     vdW  Elec       q    Type
REMARK                         _______ _______ _______ _____ _____    ______ ____
ROOT
ATOM      1  C   UNL     1     -17.155   0.433   9.837  0.00  0.00    +0.000 C 
ENDROOT
BRANCH   1   2
ATOM      2  C   UNL     1     -18.254   1.023   8.992  0.00  0.00    +0.000 C 
BRANCH   2   3
ATOM      3  C   UNL     1     -17.718   2.087   8.000  0.00  0.00    +0.000 C 
BRANCH   3   4
ATOM      4  C   UNL     1     -16.189   2.066   7.922  0.00  0.00    +0.000 C 
BRANCH   4   5
ATOM      5  C   UNL     1     -15.610   3.470   8.032  0.00  0.00    +0.000 C 
BRANCH   5   6
ATOM      6  C   UNL     1     -15.882   4.107   9.390  0.00  0.00    +0.000 C 
BRANCH   6   7
ATOM      7  C   UNL     1     -16.380   5.521   9.230  0.00  0.00    +0.000 C 
BRANCH   7   9
ATOM      8  C   UNL     1     -16.576   7.085   7.269  0.00  0.00    +0.000 C 
ATOM      9  C   UNL     1     -16.986   5.757   7.857  0.00  0.00    +0.000 C 
ENDBRANCH   7   9
ENDBRANCH   6   7
ENDBRANCH   5   6
ENDBRANCH   4   5
ENDBRANCH   3   4
ENDBRANCH   2   3
ENDBRANCH   1   2
BRANCH   1  10
ATOM     10  C   UNL     1     -17.199   0.938  11.278  0.00  0.00    +0.000 C 
BRANCH  10  11
ATOM     11  C   UNL     1     -15.802   1.366  11.773  0.00  0.00    +0.000 C 
BRANCH  11  12
ATOM     12  C   UNL     1     -14.717   0.581  11.065  0.00  0.00    +0.000 C 
BRANCH  12  13
ATOM     13  O   UNL     1     -14.382  -0.576  11.792  0.00  0.00    +0.000 OA
BRANCH  13  14
ATOM     14  S   UNL     1     -12.837  -0.892  11.902  0.00  0.00    +0.000 S 
ATOM     15  O   UNL     1     -12.136   0.338  12.237  0.00  0.00    +0.000 OA
ATOM     16  O   UNL     1     -12.609  -1.881  12.898  0.00  0.00    +0.000 OA
ATOM     17  O   UNL     1     -12.406  -1.394  10.553  0.00  0.00    +0.000 OA
ENDBRANCH  13  14
ENDBRANCH  12  13
ENDBRANCH  11  12
ENDBRANCH  10  11
ENDBRANCH   1  10
TORSDOF 12
BEGIN_RES LEU A  10
REMARK  2 active torsions:
REMARK  status: ('A' for Active; 'I' for Inactive)
REMARK    1  A    between atoms: CA   and  CB  
REMARK    2  A    between atoms: CB   and  CG  
ROOT
ATOM      1  CA  LEU A  10     -10.775  -4.871   5.898  1.00 25.14     0.177 C 
ENDROOT
BRANCH   1   2
ATOM      2  CB  LEU A  10     -12.191  -4.387   6.226  1.00 17.87     0.038 C 
BRANCH   2   3
ATOM      3  CG  LEU A  10     -12.661  -3.193   5.392  1.00 24.95    -0.020 C 
ATOM      4  CD2 LEU A  10     -13.486  -2.295   6.251  1.00 26.38     0.009 C 
ATOM      5  CD1 LEU A  10     -13.454  -3.654   4.182  1.00 28.12     0.009 C 
ENDBRANCH   2   3
ENDBRANCH   1   2
END_RES LEU A  10
BEGIN_RES CYS A  12
REMARK  2 active torsions:
REMARK  status: ('A' for Active; 'I' for Inactive)
REMARK    3  A    between atoms: CA   and  CB  
REMARK    4  A    between atoms: CB   and  SG  
ROOT
ATOM      6  CA  CYS A  12      -8.555   0.470   8.750  1.00 23.16     0.185 C 
ENDROOT
BRANCH   6   7
ATOM      7  CB  CYS A  12      -9.828   0.763   9.555  1.00 20.43     0.105 C 
BRANCH   7   8
ATOM      8  SG  CYS A  12     -11.001   1.930   8.800  1.00 24.64    -0.180 SA
ATOM      9  H04 CYS A  12     -10.492   2.397   7.652  1.00 24.64     0.101 HD
ENDBRANCH   7   8
ENDBRANCH   6   7
END_RES CYS A  12
BEGIN_RES GLN A  14
REMARK  3 active torsions:
REMARK  status: ('A' for Active; 'I' for Inactive)
REMARK    5  A    between atoms: CA   and  CB  
REMARK    6  A    between atoms: CB   and  CG  
REMARK    7  A    between atoms: CG   and  CD  
REMARK       I    between atoms: CD   and  NE2 
ROOT
ATOM     10  CA  GLN A  14      -4.645   5.402  11.377  1.00 10.43     0.177 C 
ENDROOT
BRANCH  10  11
ATOM     11  CB  GLN A  14      -5.541   5.549  12.608  1.00 14.45     0.044 C 
BRANCH  11  12
ATOM     12  CG  GLN A  14      -6.573   6.647  12.492  1.00 13.74     0.105 C 
BRANCH  12  13
ATOM     13  CD  GLN A  14      -5.950   8.021  12.433  1.00 16.29     0.215 C 
ATOM     14  NE2 GLN A  14      -6.517   8.887  11.622  1.00  8.57    -0.370 N 
ATOM     15  H06 GLN A  14      -6.145   9.823  11.542  1.00  8.57     0.159 HD
ATOM     16  H07 GLN A  14      -7.325   8.617  11.079  1.00  8.57     0.159 HD
ATOM     17  OE1 GLN A  14      -4.974   8.300  13.112  1.00 23.55    -0.274 OA
ENDBRANCH  12  13
ENDBRANCH  11  12
ENDBRANCH  10  11
END_RES GLN A  14
BEGIN_RES SER A  16
REMARK  2 active torsions:
REMARK  status: ('A' for Active; 'I' for Inactive)
REMARK    8  A    between atoms: CA   and  CB  
REMARK    9  A    between atoms: CB   and  OG  
ROOT
ATOM     18  CA  SER A  16      -1.305  10.019  14.282  1.00  2.34     0.200 C 
ENDROOT
BRANCH  18  19
ATOM     19  CB  SER A  16      -2.242   9.935  15.479  1.00  3.12     0.199 C 
BRANCH  19  20
ATOM     20  OG  SER A  16      -3.469   9.334  15.103  1.00  1.00    -0.398 OA
ATOM     21  H04 SER A  16      -3.431   8.391  15.279  1.00  1.00     0.209 HD
ENDBRANCH  19  20
ENDBRANCH  18  19
END_RES SER A  16
BEGIN_RES LEU A  32
REMARK  2 active torsions:
REMARK  status: ('A' for Active; 'I' for Inactive)
REMARK   10  A    between atoms: CA   and  CB  
REMARK   11  A    between atoms: CB   and  CG  
ROOT
ATOM     22  CA  LEU A  32     -10.272  -4.106   1.587  1.00 16.16     0.177 C 
ENDROOT
BRANCH  22  23
ATOM     23  CB  LEU A  32     -11.613  -3.858   0.880  1.00 12.35     0.038 C 
BRANCH  23  24
ATOM     24  CG  LEU A  32     -12.587  -5.039   1.066  1.00  9.77    -0.020 C 
ATOM     25  CD1 LEU A  32     -14.001  -4.607   0.756  1.00  4.35     0.009 C 
ATOM     26  CD2 LEU A  32     -12.203  -6.196   0.182  1.00 10.60     0.009 C 
ENDBRANCH  23  24
ENDBRANCH  22  23
END_RES LEU A  32
BEGIN_RES HIS A  38
REMARK  2 active torsions:
REMARK  status: ('A' for Active; 'I' for Inactive)
REMARK   12  A    between atoms: CA   and  CB  
REMARK   13  A    between atoms: CB   and  CG  
ROOT
ATOM     27  CA  HIS A  38     -10.959   4.941   1.621  1.00 16.94     0.182 C 
ENDROOT
BRANCH  27  28
ATOM     28  CB  HIS A  38     -11.810   4.840   2.881  1.00 15.47     0.095 C 
BRANCH  28  29
ATOM     29  CG  HIS A  38     -12.995   3.940   2.739  1.00 18.62     0.053 A 
ATOM     30  CD2 HIS A  38     -14.155   4.099   2.057  1.00 15.06     0.116 A 
ATOM     31  NE2 HIS A  38     -14.887   2.954   2.238  1.00 18.12    -0.359 N 
ATOM     32  CE1 HIS A  38     -14.205   2.122   3.002  1.00 14.78     0.207 A 
ATOM     33  H06 HIS A  38     -15.802   2.776   1.848  1.00 18.12     0.166 HD
ATOM     34  ND1 HIS A  38     -13.060   2.692   3.319  1.00 16.58    -0.247 NA
ENDBRANCH  28  29
ENDBRANCH  27  28
END_RES HIS A  38
BEGIN_RES TRP A  63
REMARK  2 active torsions:
REMARK  status: ('A' for Active; 'I' for Inactive)
REMARK   14  A    between atoms: CA   and  CB  
REMARK   15  A    between atoms: CB   and  CG  
ROOT
ATOM     35  CA  TRP A  63     -22.437   6.257   6.543  1.00 27.04     0.181 C 
ENDROOT
BRANCH  35  36
ATOM     36  CB  TRP A  63     -22.360   6.642   5.068  1.00 31.37     0.075 C 
BRANCH  36  37
ATOM     37  CG  TRP A  63     -20.953   6.827   4.539  1.00 34.37    -0.028 A 
ATOM     38  CD2 TRP A  63     -19.873   5.885   4.598  1.00 33.79    -0.002 A 
ATOM     39  CE3 TRP A  63     -19.721   4.614   5.157  1.00 32.99     0.014 A 
ATOM     40  CE2 TRP A  63     -18.779   6.462   3.917  1.00 35.84     0.042 A 
ATOM     41  CZ3 TRP A  63     -18.501   3.967   5.021  1.00 32.93     0.001 A 
ATOM     42  CH2 TRP A  63     -17.431   4.568   4.339  1.00 39.24     0.002 A 
ATOM     43  CZ2 TRP A  63     -17.552   5.812   3.780  1.00 37.99     0.030 A 
ATOM     44  NE1 TRP A  63     -19.179   7.691   3.470  1.00 37.98    -0.365 N 
ATOM     45  H06 TRP A  63     -18.609   8.339   2.946  1.00 37.98     0.165 HD
ATOM     46  CD1 TRP A  63     -20.483   7.900   3.850  1.00 38.16     0.096 A 
ENDBRANCH  36  37
ENDBRANCH  35  36
END_RES TRP A  63
BEGIN_RES LEU A  66
REMARK  2 active torsions:
REMARK  status: ('A' for Active; 'I' for Inactive)
REMARK   16  A    between atoms: CA   and  CB  
REMARK   17  A    between atoms: CB   and  CG  
ROOT
ATOM     47  CA  LEU A  66     -20.004   6.489  11.120  1.00 10.90     0.177 C 
ENDROOT
BRANCH  47  48
ATOM     48  CB  LEU A  66     -19.626   5.453  10.069  1.00 13.57     0.038 C 
BRANCH  48  49
ATOM     49  CG  LEU A  66     -19.461   4.008  10.539  1.00  8.73    -0.020 C 
ATOM     50  CD1 LEU A  66     -19.043   3.965  11.985  1.00 14.23     0.009 C 
ATOM     51  CD2 LEU A  66     -20.776   3.294  10.358  1.00  1.92     0.009 C 
ENDBRANCH  48  49
ENDBRANCH  47  48
END_RES LEU A  66
BEGIN_RES PHE A  70
REMARK  2 active torsions:
REMARK  status: ('A' for Active; 'I' for Inactive)
REMARK   18  A    between atoms: CA   and  CB  
REMARK   19  A    between atoms: CB   and  CG  
ROOT
ATOM     52  CA  PHE A  70     -14.974   9.434  13.165  1.00  8.78     0.180 C 
ENDROOT
BRANCH  52  53
ATOM     53  CB  PHE A  70     -14.707   9.132  11.681  1.00  6.33     0.073 C 
BRANCH  53  54
ATOM     54  CG  PHE A  70     -13.934   7.861  11.459  1.00  3.42    -0.056 A 
ATOM     55  CD1 PHE A  70     -13.609   7.435  10.180  1.00 13.88     0.007 A 
ATOM     56  CE1 PHE A  70     -12.927   6.222   9.977  1.00 12.71     0.001 A 
ATOM     57  CZ  PHE A  70     -12.566   5.429  11.067  1.00  4.21     0.000 A 
ATOM     58  CE2 PHE A  70     -12.882   5.845  12.347  1.00  2.83     0.001 A 
ATOM     59  CD2 PHE A  70     -13.564   7.058  12.539  1.00  1.00     0.007 A 
ENDBRANCH  53  54
ENDBRANCH  52  53
END_RES PHE A  70
BEGIN_RES TYR A  73
REMARK  3 active torsions:
REMARK  status: ('A' for Active; 'I' for Inactive)
REMARK   20  A    between atoms: CA   and  CB  
REMARK   21  A    between atoms: CB   and  CG  
REMARK   22  A    between atoms: CZ   and  OH  
ROOT
ATOM     60  CA  TYR A  73     -13.212  10.166  17.260  1.00 12.17     0.180 C 
ENDROOT
BRANCH  60  61
ATOM     61  CB  TYR A  73     -13.301   8.846  16.517  1.00 12.84     0.073 C 
BRANCH  61  62
ATOM     62  CG  TYR A  73     -13.425   7.673  17.425  1.00 15.89    -0.056 A 
ATOM     63  CD1 TYR A  73     -13.342   7.819  18.792  1.00 16.00     0.010 A 
ATOM     64  CE1 TYR A  73     -13.426   6.718  19.643  1.00 13.55     0.037 A 
ATOM     65  CZ  TYR A  73     -13.595   5.458  19.104  1.00 18.13     0.065 A 
ATOM     66  CE2 TYR A  73     -13.682   5.284  17.742  1.00 15.89     0.037 A 
ATOM     67  CD2 TYR A  73     -13.597   6.393  16.909  1.00 21.86     0.010 A 
BRANCH  65  68
ATOM     68  OH  TYR A  73     -13.687   4.360  19.923  1.00 12.12    -0.361 OA
ATOM     69  H08 TYR A  73     -14.524   3.914  19.770  1.00 12.12     0.217 HD
ENDBRANCH  65  68
ENDBRANCH  61  62
ENDBRANCH  60  61
END_RES TYR A  73
BEGIN_RES PHE A  77
REMARK  2 active torsions:
REMARK  status: ('A' for Active; 'I' for Inactive)
REMARK   23  A    between atoms: CA   and  CB  
REMARK   24  A    between atoms: CB   and  CG  
ROOT
ATOM     70  CA  PHE A  77      -8.400  10.581  20.110  1.00 17.17     0.180 C 
ENDROOT
BRANCH  70  71
ATOM     71  CB  PHE A  77      -8.228   9.750  18.851  1.00 10.44     0.073 C 
BRANCH  71  72
ATOM     72  CG  PHE A  77      -8.823   8.380  18.947  1.00  6.07    -0.056 A 
ATOM     73  CD2 PHE A  77      -8.850   7.711  20.149  1.00  9.61     0.007 A 
ATOM     74  CE2 PHE A  77      -9.402   6.440  20.248  1.00  1.00     0.001 A 
ATOM     75  CZ  PHE A  77      -9.938   5.831  19.126  1.00  1.92     0.000 A 
ATOM     76  CE1 PHE A  77      -9.922   6.487  17.916  1.00  9.25     0.001 A 
ATOM     77  CD1 PHE A  77      -9.363   7.762  17.831  1.00  9.63     0.007 A 
ENDBRANCH  71  72
ENDBRANCH  70  71
END_RES PHE A  77
BEGIN_RES LEU A  96
REMARK  2 active torsions:
REMARK  status: ('A' for Active; 'I' for Inactive)
REMARK   25  A    between atoms: CA   and  CB  
REMARK   26  A    between atoms: CB   and  CG  
ROOT
ATOM     78  CA  LEU A  96       0.717   6.481  17.359  1.00 16.08     0.177 C 
ENDROOT
BRANCH  78  79
ATOM     79  CB  LEU A  96      -0.370   7.101  18.230  1.00 18.83     0.038 C 
BRANCH  79  80
ATOM     80  CG  LEU A  96      -0.150   6.935  19.734  1.00 19.03    -0.020 C 
ATOM     81  CD1 LEU A  96       0.559   8.161  20.261  1.00 28.17     0.009 C 
ATOM     82  CD2 LEU A  96      -1.475   6.804  20.449  1.00 22.01     0.009 C 
ENDBRANCH  79  80
ENDBRANCH  78  79
END_RES LEU A  96
BEGIN_RES VAL A  98
REMARK  1 active torsions:
REMARK  status: ('A' for Active; 'I' for Inactive)
REMARK   27  A    between atoms: CA   and  CB  
ROOT
ATOM     83  CA  VAL A  98      -3.928   2.082  14.897  1.00 19.83     0.180 C 
ENDROOT
BRANCH  83  84
ATOM     84  CB  VAL A  98      -5.203   2.807  15.281  1.00 17.87     0.009 C 
ATOM     85  CG2 VAL A  98      -4.918   4.269  15.507  1.00 29.90     0.012 C 
ATOM     86  CG1 VAL A  98      -5.789   2.175  16.526  1.00 14.79     0.012 C 
ENDBRANCH  83  84
END_RES VAL A  98
BEGIN_RES ASN A 112
REMARK  2 active torsions:
REMARK  status: ('A' for Active; 'I' for Inactive)
REMARK   28  A    between atoms: CA   and  CB  
REMARK   29  A    between atoms: CB   and  CG  
REMARK       I    between atoms: CG   and  ND2 
ROOT
ATOM     87  CA  ASN A 112     -11.790  -8.793  14.069  1.00 37.70     0.185 C 
ENDROOT
BRANCH  87  88
ATOM     88  CB  ASN A 112     -12.992  -7.945  14.465  1.00 26.24     0.137 C 
BRANCH  88  89
ATOM     89  CG  ASN A 112     -13.817  -8.566  15.570  1.00 21.77     0.217 C 
ATOM     90  ND2 ASN A 112     -14.967  -9.128  15.201  1.00  9.31    -0.370 N 
ATOM     91  H04 ASN A 112     -15.564  -9.558  15.893  1.00  9.31     0.159 HD
ATOM     92  H05 ASN A 112     -15.242  -9.124  14.228  1.00  9.31     0.159 HD
ATOM     93  OD1 ASN A 112     -13.431  -8.537  16.745  1.00 21.61    -0.274 OA
ENDBRANCH  88  89
ENDBRANCH  87  88
END_RES ASN A 112
BEGIN_RES PHE A 114
REMARK  2 active torsions:
REMARK  status: ('A' for Active; 'I' for Inactive)
REMARK   30  A    between atoms: CA   and  CB  
REMARK   31  A    between atoms: CB   and  CG  
ROOT
ATOM     94  CA  PHE A 114      -7.754  -3.619  17.012  1.00 26.06     0.180 C 
ENDROOT
BRANCH  94  95
ATOM     95  CB  PHE A 114      -8.890  -3.080  17.867  1.00 19.95     0.073 C 
BRANCH  95  96
ATOM     96  CG  PHE A 114      -9.220  -1.651  17.581  1.00 17.65    -0.056 A 
ATOM     97  CD1 PHE A 114      -8.213  -0.695  17.471  1.00 13.01     0.007 A 
ATOM     98  CE1 PHE A 114      -8.521   0.638  17.234  1.00  6.74     0.001 A 
ATOM     99  CZ  PHE A 114      -9.848   1.035  17.101  1.00  6.27     0.000 A 
ATOM    100  CE2 PHE A 114     -10.858   0.092  17.207  1.00 17.36     0.001 A 
ATOM    101  CD2 PHE A 114     -10.542  -1.249  17.447  1.00 18.39     0.007 A 
ENDBRANCH  95  96
ENDBRANCH  94  95
END_RES PHE A 114
BEGIN_RES VAL A 116
REMARK  1 active torsions:
REMARK  status: ('A' for Active; 'I' for Inactive)
REMARK   32  A    between atoms: CA   and  CB  
ROOT
ATOM    102  CA  VAL A 116      -2.467   0.283  18.565  1.00 13.48     0.180 C 
ENDROOT
BRANCH 102 103
ATOM    103  CB  VAL A 116      -3.101   1.238  19.599  1.00 20.86     0.009 C 
ATOM    104  CG1 VAL A 116      -3.049   2.674  19.069  1.00 25.01     0.012 C 
ATOM    105  CG2 VAL A 116      -4.515   0.816  19.926  1.00 25.34     0.012 C 
ENDBRANCH 102 103
END_RES VAL A 116
BEGIN_RES ILE A 123
REMARK  2 active torsions:
REMARK  status: ('A' for Active; 'I' for Inactive)
REMARK   33  A    between atoms: CA   and  CB  
REMARK   34  A    between atoms: CB   and  CG1 
ROOT
ATOM    106  CA  ILE A 123       1.557  -1.626  23.222  1.00 15.07     0.180 C 
ENDROOT
BRANCH 106 107
ATOM    107  CB  ILE A 123       1.697  -0.112  23.461  1.00 14.41     0.013 C 
ATOM    108  CG2 ILE A 123       3.084   0.201  23.994  1.00 18.35     0.012 C 
BRANCH 107 109
ATOM    109  CG1 ILE A 123       1.444   0.655  22.165  1.00 15.23     0.002 C 
ATOM    110  CD1 ILE A 123       0.185   1.487  22.190  1.00 14.67     0.005 C 
ENDBRANCH 107 109
ENDBRANCH 106 107
END_RES ILE A 123
BEGIN_RES LEU A 124
REMARK  2 active torsions:
REMARK  status: ('A' for Active; 'I' for Inactive)
REMARK   35  A    between atoms: CA   and  CB  
REMARK   36  A    between atoms: CB   and  CG  
ROOT
ATOM    111  CA  LEU A 124      -2.057  -2.686  23.524  1.00 11.86     0.177 C 
ENDROOT
BRANCH 111 112
ATOM    112  CB  LEU A 124      -2.698  -1.652  24.429  1.00 14.60     0.038 C 
BRANCH 112 113
ATOM    113  CG  LEU A 124      -2.636  -0.254  23.833  1.00 16.19    -0.020 C 
ATOM    114  CD1 LEU A 124      -4.063   0.199  23.467  1.00 22.07     0.009 C 
ATOM    115  CD2 LEU A 124      -1.984   0.684  24.817  1.00  9.12     0.009 C 
ENDBRANCH 112 113
ENDBRANCH 111 112
END_RES LEU A 124
BEGIN_RES PHE A 126
REMARK  2 active torsions:
REMARK  status: ('A' for Active; 'I' for Inactive)
REMARK   37  A    between atoms: CA   and  CB  
REMARK   38  A    between atoms: CB   and  CG  
ROOT
ATOM    116  CA  PHE A 126      -8.784  -4.792  22.233  1.00 23.15     0.180 C 
ENDROOT
BRANCH 116 117
ATOM    117  CB  PHE A 126      -9.823  -4.011  21.461  1.00 20.65     0.073 C 
BRANCH 117 118
ATOM    118  CG  PHE A 126     -10.952  -3.547  22.296  1.00 23.65    -0.056 A 
ATOM    119  CD2 PHE A 126     -10.769  -2.551  23.239  1.00 36.63     0.007 A 
ATOM    120  CE2 PHE A 126     -11.840  -2.110  24.029  1.00 36.27     0.001 A 
ATOM    121  CZ  PHE A 126     -13.096  -2.675  23.867  1.00 18.06     0.000 A 
ATOM    122  CE1 PHE A 126     -13.283  -3.668  22.926  1.00  5.50     0.001 A 
ATOM    123  CD1 PHE A 126     -12.212  -4.098  22.142  1.00 15.29     0.007 A 
ENDBRANCH 117 118
ENDBRANCH 116 117
END_RES PHE A 126
BEGIN_RES TRP A 131
REMARK  2 active torsions:
REMARK  status: ('A' for Active; 'I' for Inactive)
REMARK   39  A    between atoms: CA   and  CB  
REMARK   40  A    between atoms: CB   and  CG  
ROOT
ATOM    124  CA  TRP A 131      -8.096  -3.335  26.542  1.00 14.52     0.181 C 
ENDROOT
BRANCH 124 125
ATOM    125  CB  TRP A 131      -7.651  -1.877  26.607  1.00 13.06     0.075 C 
BRANCH 125 126
ATOM    126  CG  TRP A 131      -8.053  -1.050  25.406  1.00 16.97    -0.028 A 
ATOM    127  CD2 TRP A 131      -9.135  -0.117  25.337  1.00 11.34    -0.002 A 
ATOM    128  CE2 TRP A 131      -9.142   0.427  24.038  1.00  5.87     0.042 A 
ATOM    129  CE3 TRP A 131     -10.100   0.311  26.255  1.00  3.80     0.014 A 
ATOM    130  CZ2 TRP A 131     -10.077   1.381  23.633  1.00  1.35     0.030 A 
ATOM    131  NE1 TRP A 131      -8.114  -0.149  23.345  1.00 13.90    -0.365 N 
ATOM    132  CH2 TRP A 131     -11.013   1.784  24.554  1.00  1.00     0.002 A 
ATOM    133  CZ3 TRP A 131     -11.031   1.254  25.858  1.00  1.00     0.001 A 
ATOM    134  CD1 TRP A 131      -7.463  -1.036  24.172  1.00 17.22     0.096 A 
ATOM    135  H07 TRP A 131      -7.871   0.044  22.384  1.00 13.90     0.165 HD
ENDBRANCH 125 126
ENDBRANCH 124 125
END_RES TRP A 131
BEGIN_RES LEU A 148
REMARK  2 active torsions:
REMARK  status: ('A' for Active; 'I' for Inactive)
REMARK   41  A    between atoms: CA   and  CB  
REMARK   42  A    between atoms: CB   and  CG  
ROOT
ATOM    136  CA  LEU A 148      -9.018   3.259  29.295  1.00 16.99     0.177 C 
ENDROOT
BRANCH 136 137
ATOM    137  CB  LEU A 148      -8.166   2.574  28.236  1.00  6.39     0.038 C 
BRANCH 137 138
ATOM    138  CG  LEU A 148      -7.540   3.364  27.105  1.00  1.00    -0.020 C 
ATOM    139  CD2 LEU A 148      -8.604   4.038  26.289  1.00  1.00     0.009 C 
ATOM    140  CD1 LEU A 148      -6.734   2.406  26.246  1.00  2.71     0.009 C 
ENDBRANCH 137 138
ENDBRANCH 136 137
END_RES LEU A 148
BEGIN_RES THR A 154
REMARK  2 active torsions:
REMARK  status: ('A' for Active; 'I' for Inactive)
REMARK   43  A    between atoms: CA   and  CB  
REMARK   44  A    between atoms: CB   and  OG1 
ROOT
ATOM    141  CA  THR A 154     -15.990   3.959  24.426  1.00 20.45     0.205 C 
ENDROOT
BRANCH 141 142
ATOM    142  CB  THR A 154     -14.777   4.829  24.694  1.00 16.79     0.146 C 
ATOM    143  CG2 THR A 154     -13.668   4.497  23.715  1.00 20.24     0.042 C 
BRANCH 142 144
ATOM    144  OG1 THR A 154     -15.145   6.204  24.527  1.00 18.84    -0.393 OA
ATOM    145  H06 THR A 154     -15.481   6.549  25.357  1.00 18.84     0.210 HD
ENDBRANCH 142 144
ENDBRANCH 141 142
END_RES THR A 154
BEGIN_RES VAL A 158
REMARK  1 active torsions:
REMARK  status: ('A' for Active; 'I' for Inactive)
REMARK   45  A    between atoms: CA   and  CB  
ROOT
ATOM    146  CA  VAL A 158     -15.487  -0.189  19.892  1.00 15.49     0.180 C 
ENDROOT
BRANCH 146 147
ATOM    147  CB  VAL A 158     -14.291  -0.273  20.822  1.00  6.52     0.009 C 
ATOM    148  CG1 VAL A 158     -13.239  -1.203  20.264  1.00  1.00     0.012 C 
ATOM    149  CG2 VAL A 158     -13.733   1.104  21.012  1.00  5.99     0.012 C 
ENDBRANCH 146 147
END_RES VAL A 158
BEGIN_RES LEU A 161
REMARK  2 active torsions:
REMARK  status: ('A' for Active; 'I' for Inactive)
REMARK   46  A    between atoms: CA   and  CB  
REMARK   47  A    between atoms: CB   and  CG  
ROOT
ATOM    150  CA  LEU A 161     -18.031  -1.858  15.935  1.00 13.31     0.177 C 
ENDROOT
BRANCH 150 151
ATOM    151  CB  LEU A 161     -17.046  -0.706  16.001  1.00 14.13     0.038 C 
BRANCH 151 152
ATOM    152  CG  LEU A 161     -17.324   0.473  15.077  1.00 19.39    -0.020 C 
ATOM    153  CD2 LEU A 161     -16.488   1.663  15.483  1.00 27.75     0.009 C 
ATOM    154  CD1 LEU A 161     -18.786   0.820  15.157  1.00 18.59     0.009 C 
ENDBRANCH 151 152
ENDBRANCH 150 151
END_RES LEU A 161
BEGIN_RES GLN A 168
REMARK  3 active torsions:
REMARK  status: ('A' for Active; 'I' for Inactive)
REMARK   48  A    between atoms: CA   and  CB  
REMARK   49  A    between atoms: CB   and  CG  
REMARK   50  A    between atoms: CG   and  CD  
REMARK       I    between atoms: CD   and  NE2 
ROOT
ATOM    155  CA  GLN A 168     -22.035  -6.020   8.155  1.00 30.94     0.177 C 
ENDROOT
BRANCH 155 156
ATOM    156  CB  GLN A 168     -23.054  -5.218   8.946  1.00 41.76     0.044 C 
BRANCH 156 157
ATOM    157  CG  GLN A 168     -24.473  -5.699   8.804  1.00 61.20     0.105 C 
BRANCH 157 158
ATOM    158  CD  GLN A 168     -25.074  -5.301   7.470  1.00 75.49     0.215 C 
ATOM    159  NE2 GLN A 168     -25.649  -6.278   6.767  1.00 85.00    -0.370 N 
ATOM    160  H06 GLN A 168     -26.065  -6.076   5.869  1.00 85.00     0.159 HD
ATOM    161  H07 GLN A 168     -25.668  -7.219   7.133  1.00 85.00     0.159 HD
ATOM    162  OE1 GLN A 168     -25.018  -4.130   7.068  1.00 73.64    -0.274 OA
ENDBRANCH 157 158
ENDBRANCH 156 157
ENDBRANCH 155 156
END_RES GLN A 168
ENDMDL
MODEL 2
REMARK VINA RESULT:      -6.5      0.836      1.711
REMARK  Name = human_CD1d_SDS_pred.rank_0
REMARK  12 active torsions:
REMARK  status: ('A' for Active; 'I' for Inactive)
REMARK    1  A    between atoms: O_2  and  S_3
REMARK    2  A    between atoms: O_2  and  C_17
REMARK    3  A    between atoms: C_4  and  C_6
REMARK    4  A    between atoms: C_6  and  C_8
REMARK    5  A    between atoms: C_8  and  C_10
REMARK    6  A    between atoms: C_10  and  C_11
REMARK    7  A    between atoms: C_11  and  C_12
REMARK    8  A    between atoms: C_12  and  C_13
REMARK    9  A    between atoms: C_13  and  C_14
REMARK   10  A    between atoms: C_14  and  C_15
REMARK   11  A    between atoms: C_15  and  C_16
REMARK   12  A    between atoms: C_16  and  C_17
REMARK                            x       y       z     vdW  Elec       q    Type
REMARK                         _______ _______ _______ _____ _____    ______ ____
ROOT
ATOM      1  C   UNL     1     -15.122   3.442  14.316  0.00  0.00    +0.000 C 
ENDROOT
BRANCH   1   2
ATOM      2  C   UNL     1     -16.205   3.984  13.420  0.00  0.00    +0.000 C 
BRANCH   2   3
ATOM      3  C   UNL     1     -15.930   3.678  11.925  0.00  0.00    +0.000 C 
BRANCH   3   4
ATOM      4  C   UNL     1     -16.203   4.897  11.040  0.00  0.00    +0.000 C 
BRANCH   4   5
ATOM      5  C   UNL     1     -16.038   4.557   9.565  0.00  0.00    +0.000 C 
BRANCH   5   6
ATOM      6  C   UNL     1     -16.232   3.072   9.284  0.00  0.00    +0.000 C 
BRANCH   6   7
ATOM      7  C   UNL     1     -16.854   2.857   7.928  0.00  0.00    +0.000 C 
BRANCH   7   9
ATOM      8  C   UNL     1     -17.985   0.984   9.171  0.00  0.00    +0.000 C 
ATOM      9  C   UNL     1     -18.054   1.928   7.996  0.00  0.00    +0.000 C 
ENDBRANCH   7   9
ENDBRANCH   6   7
ENDBRANCH   5   6
ENDBRANCH   4   5
ENDBRANCH   3   4
ENDBRANCH   2   3
ENDBRANCH   1   2
BRANCH   1  10
ATOM     10  C   UNL     1     -14.119   2.578  13.554  0.00  0.00    +0.000 C 
BRANCH  10  11
ATOM     11  C   UNL     1     -13.646   1.378  14.399  0.00  0.00    +0.000 C 
BRANCH  11  12
ATOM     12  C   UNL     1     -12.515   0.645  13.707  0.00  0.00    +0.000 C 
BRANCH  12  13
ATOM     13  O   UNL     1     -12.792   0.477  12.338  0.00  0.00    +0.000 OA
BRANCH  13  14
ATOM     14  S   UNL     1     -13.126  -0.998  11.881  0.00  0.00    +0.000 S 
ATOM     15  O   UNL     1     -14.569  -1.122  11.740  0.00  0.00    +0.000 OA
ATOM     16  O   UNL     1     -12.479  -1.289  10.649  0.00  0.00    +0.000 OA
ATOM     17  O   UNL     1     -12.623  -1.906  12.968  0.00  0.00    +0.000 OA
ENDBRANCH  13  14
ENDBRANCH  12  13
ENDBRANCH  11  12
ENDBRANCH  10  11
ENDBRANCH   1  10
TORSDOF 12
BEGIN_RES LEU A  10
REMARK  2 active torsions:
REMARK  status: ('A' for Active; 'I' for Inactive)
REMARK    1  A    between atoms: CA   and  CB  
REMARK    2  A    between atoms: CB   and  CG  
ROOT
ATOM      1  CA  LEU A  10     -10.775  -4.871   5.898  1.00 25.14     0.177 C 
ENDROOT
BRANCH   1   2
ATOM      2  CB  LEU A  10     -12.191  -4.387   6.226  1.00 17.87     0.038 C 
BRANCH   2   3
ATOM      3  CG  LEU A  10     -12.386  -2.874   6.109  1.00 24.95    -0.020 C 
ATOM      4  CD2 LEU A  10     -13.663  -2.494   6.779  1.00 26.38     0.009 C 
ATOM      5  CD1 LEU A  10     -12.395  -2.438   4.654  1.00 28.12     0.009 C 
ENDBRANCH   2   3
ENDBRANCH   1   2
END_RES LEU A  10
BEGIN_RES CYS A  12
REMARK  2 active torsions:
REMARK  status: ('A' for Active; 'I' for Inactive)
REMARK    3  A    between atoms: CA   and  CB  
REMARK    4  A    between atoms: CB   and  SG  
ROOT
ATOM      6  CA  CYS A  12      -8.555   0.470   8.750  1.00 23.16     0.185 C 
ENDROOT
BRANCH   6   7
ATOM      7  CB  CYS A  12      -9.828   0.763   9.555  1.00 20.43     0.105 C 
BRANCH   7   8
ATOM      8  SG  CYS A  12     -10.974   1.973   8.827  1.00 24.64    -0.180 SA
ATOM      9  H04 CYS A  12     -10.991   1.829   7.495  1.00 24.64     0.101 HD
ENDBRANCH   7   8
ENDBRANCH   6   7
END_RES CYS A  12
BEGIN_RES GLN A  14
REMARK  3 active torsions:
REMARK  status: ('A' for Active; 'I' for Inactive)
REMARK    5  A    between atoms: CA   and  CB  
REMARK    6  A    between atoms: CB   and  CG  
REMARK    7  A    between atoms: CG   and  CD  
REMARK       I    between atoms: CD   and  NE2 
ROOT
ATOM     10  CA  GLN A  14      -4.645   5.402  11.377  1.00 10.43     0.177 C 
ENDROOT
BRANCH  10  11
ATOM     11  CB  GLN A  14      -5.541   5.549  12.608  1.00 14.45     0.044 C 
BRANCH  11  12
ATOM     12  CG  GLN A  14      -6.448   6.757  12.570  1.00 13.74     0.105 C 
BRANCH  12  13
ATOM     13  CD  GLN A  14      -5.865   7.940  13.307  1.00 16.29     0.215 C 
ATOM     14  NE2 GLN A  14      -6.658   8.977  13.471  1.00  8.57    -0.370 N 
ATOM     15  H06 GLN A  14      -6.323   9.796  13.958  1.00  8.57     0.159 HD
ATOM     16  H07 GLN A  14      -7.601   8.954  13.111  1.00  8.57     0.159 HD
ATOM     17  OE1 GLN A  14      -4.719   7.918  13.726  1.00 23.55    -0.274 OA
ENDBRANCH  12  13
ENDBRANCH  11  12
ENDBRANCH  10  11
END_RES GLN A  14
BEGIN_RES SER A  16
REMARK  2 active torsions:
REMARK  status: ('A' for Active; 'I' for Inactive)
REMARK    8  A    between atoms: CA   and  CB  
REMARK    9  A    between atoms: CB   and  OG  
ROOT
ATOM     18  CA  SER A  16      -1.305  10.019  14.282  1.00  2.34     0.200 C 
ENDROOT
BRANCH  18  19
ATOM     19  CB  SER A  16      -2.242   9.935  15.479  1.00  3.12     0.199 C 
BRANCH  19  20
ATOM     20  OG  SER A  16      -2.515   8.582  15.797  1.00  1.00    -0.398 OA
ATOM     21  H04 SER A  16      -1.763   8.037  15.552  1.00  1.00     0.209 HD
ENDBRANCH  19  20
ENDBRANCH  18  19
END_RES SER A  16
BEGIN_RES LEU A  32
REMARK  2 active torsions:
REMARK  status: ('A' for Active; 'I' for Inactive)
REMARK   10  A    between atoms: CA   and  CB  
REMARK   11  A    between atoms: CB   and  CG  
ROOT
ATOM     22  CA  LEU A  32     -10.272  -4.106   1.587  1.00 16.16     0.177 C 
ENDROOT
BRANCH  22  23
ATOM     23  CB  LEU A  32     -11.613  -3.858   0.880  1.00 12.35     0.038 C 
BRANCH  23  24
ATOM     24  CG  LEU A  32     -12.585  -5.042   1.061  1.00  9.77    -0.020 C 
ATOM     25  CD1 LEU A  32     -13.002  -5.163   2.507  1.00  4.35     0.009 C 
ATOM     26  CD2 LEU A  32     -13.804  -4.873   0.192  1.00 10.60     0.009 C 
ENDBRANCH  23  24
ENDBRANCH  22  23
END_RES LEU A  32
BEGIN_RES HIS A  38
REMARK  2 active torsions:
REMARK  status: ('A' for Active; 'I' for Inactive)
REMARK   12  A    between atoms: CA   and  CB  
REMARK   13  A    between atoms: CB   and  CG  
ROOT
ATOM     27  CA  HIS A  38     -10.959   4.941   1.621  1.00 16.94     0.182 C 
ENDROOT
BRANCH  27  28
ATOM     28  CB  HIS A  38     -11.810   4.840   2.881  1.00 15.47     0.095 C 
BRANCH  28  29
ATOM     29  CG  HIS A  38     -12.990   3.933   2.742  1.00 18.62     0.053 A 
ATOM     30  CD2 HIS A  38     -14.144   4.078   2.048  1.00 15.06     0.116 A 
ATOM     31  NE2 HIS A  38     -14.874   2.932   2.239  1.00 18.12    -0.359 N 
ATOM     32  CE1 HIS A  38     -14.194   2.114   3.020  1.00 14.78     0.207 A 
ATOM     33  H06 HIS A  38     -15.784   2.744   1.844  1.00 18.12     0.166 HD
ATOM     34  ND1 HIS A  38     -13.055   2.694   3.339  1.00 16.58    -0.247 NA
ENDBRANCH  28  29
ENDBRANCH  27  28
END_RES HIS A  38
BEGIN_RES TRP A  63
REMARK  2 active torsions:
REMARK  status: ('A' for Active; 'I' for Inactive)
REMARK   14  A    between atoms: CA   and  CB  
REMARK   15  A    between atoms: CB   and  CG  
ROOT
ATOM     35  CA  TRP A  63     -22.437   6.257   6.543  1.00 27.04     0.181 C 
ENDROOT
BRANCH  35  36
ATOM     36  CB  TRP A  63     -22.360   6.642   5.068  1.00 31.37     0.075 C 
BRANCH  36  37
ATOM     37  CG  TRP A  63     -20.954   6.836   4.541  1.00 34.37    -0.028 A 
ATOM     38  CD2 TRP A  63     -19.884   5.881   4.552  1.00 33.79    -0.002 A 
ATOM     39  CE3 TRP A  63     -19.743   4.584   5.050  1.00 32.99     0.014 A 
ATOM     40  CE2 TRP A  63     -18.786   6.477   3.893  1.00 35.84     0.042 A 
ATOM     41  CZ3 TRP A  63     -18.531   3.931   4.879  1.00 32.93     0.001 A 
ATOM     42  CH2 TRP A  63     -17.458   4.551   4.219  1.00 39.24     0.002 A 
ATOM     43  CZ2 TRP A  63     -17.567   5.821   3.719  1.00 37.99     0.030 A 
ATOM     44  NE1 TRP A  63     -19.175   7.730   3.505  1.00 37.98    -0.365 N 
ATOM     45  H06 TRP A  63     -18.599   8.396   3.009  1.00 37.98     0.165 HD
ATOM     46  CD1 TRP A  63     -20.474   7.935   3.901  1.00 38.16     0.096 A 
ENDBRANCH  36  37
ENDBRANCH  35  36
END_RES TRP A  63
BEGIN_RES LEU A  66
REMARK  2 active torsions:
REMARK  status: ('A' for Active; 'I' for Inactive)
REMARK   16  A    between atoms: CA   and  CB  
REMARK   17  A    between atoms: CB   and  CG  
ROOT
ATOM     47  CA  LEU A  66     -20.004   6.489  11.120  1.00 10.90     0.177 C 
ENDROOT
BRANCH  47  48
ATOM     48  CB  LEU A  66     -19.626   5.453  10.069  1.00 13.57     0.038 C 
BRANCH  48  49
ATOM     49  CG  LEU A  66     -19.643   3.986  10.496  1.00  8.73    -0.020 C 
ATOM     50  CD1 LEU A  66     -19.660   3.869  11.997  1.00 14.23     0.009 C 
ATOM     51  CD2 LEU A  66     -20.869   3.333   9.912  1.00  1.92     0.009 C 
ENDBRANCH  48  49
ENDBRANCH  47  48
END_RES LEU A  66
BEGIN_RES PHE A  70
REMARK  2 active torsions:
REMARK  status: ('A' for Active; 'I' for Inactive)
REMARK   18  A    between atoms: CA   and  CB  
REMARK   19  A    between atoms: CB   and  CG  
ROOT
ATOM     52  CA  PHE A  70     -14.974   9.434  13.165  1.00  8.78     0.180 C 
ENDROOT
BRANCH  52  53
ATOM     53  CB  PHE A  70     -14.707   9.132  11.681  1.00  6.33     0.073 C 
BRANCH  53  54
ATOM     54  CG  PHE A  70     -13.966   7.842  11.457  1.00  3.42    -0.056 A 
ATOM     55  CD1 PHE A  70     -13.542   7.065  12.525  1.00 13.88     0.007 A 
ATOM     56  CE1 PHE A  70     -12.809   5.885  12.309  1.00 12.71     0.001 A 
ATOM     57  CZ  PHE A  70     -12.498   5.479  11.011  1.00  4.21     0.000 A 
ATOM     58  CE2 PHE A  70     -12.916   6.244   9.938  1.00  2.83     0.001 A 
ATOM     59  CD2 PHE A  70     -13.649   7.422  10.164  1.00  1.00     0.007 A 
ENDBRANCH  53  54
ENDBRANCH  52  53
END_RES PHE A  70
BEGIN_RES TYR A  73
REMARK  3 active torsions:
REMARK  status: ('A' for Active; 'I' for Inactive)
REMARK   20  A    between atoms: CA   and  CB  
REMARK   21  A    between atoms: CB   and  CG  
REMARK   22  A    between atoms: CZ   and  OH  
ROOT
ATOM     60  CA  TYR A  73     -13.212  10.166  17.260  1.00 12.17     0.180 C 
ENDROOT
BRANCH  60  61
ATOM     61  CB  TYR A  73     -13.301   8.846  16.517  1.00 12.84     0.073 C 
BRANCH  61  62
ATOM     62  CG  TYR A  73     -13.457   7.676  17.424  1.00 15.89    -0.056 A 
ATOM     63  CD1 TYR A  73     -13.384   7.821  18.791  1.00 16.00     0.010 A 
ATOM     64  CE1 TYR A  73     -13.500   6.721  19.641  1.00 13.55     0.037 A 
ATOM     65  CZ  TYR A  73     -13.689   5.465  19.101  1.00 18.13     0.065 A 
ATOM     66  CE2 TYR A  73     -13.766   5.293  17.738  1.00 15.89     0.037 A 
ATOM     67  CD2 TYR A  73     -13.650   6.400  16.906  1.00 21.86     0.010 A 
BRANCH  65  68
ATOM     68  OH  TYR A  73     -13.811   4.369  19.919  1.00 12.12    -0.361 OA
ATOM     69  H08 TYR A  73     -14.361   3.709  19.491  1.00 12.12     0.217 HD
ENDBRANCH  65  68
ENDBRANCH  61  62
ENDBRANCH  60  61
END_RES TYR A  73
BEGIN_RES PHE A  77
REMARK  2 active torsions:
REMARK  status: ('A' for Active; 'I' for Inactive)
REMARK   23  A    between atoms: CA   and  CB  
REMARK   24  A    between atoms: CB   and  CG  
ROOT
ATOM     70  CA  PHE A  77      -8.400  10.581  20.110  1.00 17.17     0.180 C 
ENDROOT
BRANCH  70  71
ATOM     71  CB  PHE A  77      -8.228   9.750  18.851  1.00 10.44     0.073 C 
BRANCH  71  72
ATOM     72  CG  PHE A  77      -8.858   8.395  18.932  1.00  6.07    -0.056 A 
ATOM     73  CD2 PHE A  77      -9.356   7.786  17.803  1.00  9.61     0.007 A 
ATOM     74  CE2 PHE A  77      -9.941   6.527  17.869  1.00  1.00     0.001 A 
ATOM     75  CZ  PHE A  77     -10.026   5.867  19.083  1.00  1.92     0.000 A 
ATOM     76  CE1 PHE A  77      -9.531   6.461  20.222  1.00  9.25     0.001 A 
ATOM     77  CD1 PHE A  77      -8.948   7.726  20.142  1.00  9.63     0.007 A 
ENDBRANCH  71  72
ENDBRANCH  70  71
END_RES PHE A  77
BEGIN_RES LEU A  96
REMARK  2 active torsions:
REMARK  status: ('A' for Active; 'I' for Inactive)
REMARK   25  A    between atoms: CA   and  CB  
REMARK   26  A    between atoms: CB   and  CG  
ROOT
ATOM     78  CA  LEU A  96       0.717   6.481  17.359  1.00 16.08     0.177 C 
ENDROOT
BRANCH  78  79
ATOM     79  CB  LEU A  96      -0.370   7.101  18.230  1.00 18.83     0.038 C 
BRANCH  79  80
ATOM     80  CG  LEU A  96      -0.142   6.950  19.734  1.00 19.03    -0.020 C 
ATOM     81  CD1 LEU A  96       0.574   8.178  20.245  1.00 28.17     0.009 C 
ATOM     82  CD2 LEU A  96      -1.463   6.830  20.458  1.00 22.01     0.009 C 
ENDBRANCH  79  80
ENDBRANCH  78  79
END_RES LEU A  96
BEGIN_RES VAL A  98
REMARK  1 active torsions:
REMARK  status: ('A' for Active; 'I' for Inactive)
REMARK   27  A    between atoms: CA   and  CB  
ROOT
ATOM     83  CA  VAL A  98      -3.928   2.082  14.897  1.00 19.83     0.180 C 
ENDROOT
BRANCH  83  84
ATOM     84  CB  VAL A  98      -5.203   2.807  15.281  1.00 17.87     0.009 C 
ATOM     85  CG2 VAL A  98      -4.920   4.271  15.496  1.00 29.90     0.012 C 
ATOM     86  CG1 VAL A  98      -5.783   2.183  16.532  1.00 14.79     0.012 C 
ENDBRANCH  83  84
END_RES VAL A  98
BEGIN_RES ASN A 112
REMARK  2 active torsions:
REMARK  status: ('A' for Active; 'I' for Inactive)
REMARK   28  A    between atoms: CA   and  CB  
REMARK   29  A    between atoms: CB   and  CG  
REMARK       I    between atoms: CG   and  ND2 
ROOT
ATOM     87  CA  ASN A 112     -11.790  -8.793  14.069  1.00 37.70     0.185 C 
ENDROOT
BRANCH  87  88
ATOM     88  CB  ASN A 112     -12.992  -7.945  14.465  1.00 26.24     0.137 C 
BRANCH  88  89
ATOM     89  CG  ASN A 112     -13.816  -8.565  15.571  1.00 21.77     0.217 C 
ATOM     90  ND2 ASN A 112     -14.966  -9.129  15.203  1.00  9.31    -0.370 N 
ATOM     91  H04 ASN A 112     -15.562  -9.558  15.896  1.00  9.31     0.159 HD
ATOM     92  H05 ASN A 112     -15.240  -9.127  14.231  1.00  9.31     0.159 HD
ATOM     93  OD1 ASN A 112     -13.429  -8.534  16.746  1.00 21.61    -0.274 OA
ENDBRANCH  88  89
ENDBRANCH  87  88
END_RES ASN A 112
BEGIN_RES PHE A 114
REMARK  2 active torsions:
REMARK  status: ('A' for Active; 'I' for Inactive)
REMARK   30  A    between atoms: CA   and  CB  
REMARK   31  A    between atoms: CB   and  CG  
ROOT
ATOM     94  CA  PHE A 114      -7.754  -3.619  17.012  1.00 26.06     0.180 C 
ENDROOT
BRANCH  94  95
ATOM     95  CB  PHE A 114      -8.890  -3.080  17.867  1.00 19.95     0.073 C 
BRANCH  95  96
ATOM     96  CG  PHE A 114      -9.235  -1.658  17.565  1.00 17.65    -0.056 A 
ATOM     97  CD1 PHE A 114      -8.240  -0.690  17.458  1.00 13.01     0.007 A 
ATOM     98  CE1 PHE A 114      -8.561   0.637  17.206  1.00  6.74     0.001 A 
ATOM     99  CZ  PHE A 114      -9.892   1.016  17.055  1.00  6.27     0.000 A 
ATOM    100  CE2 PHE A 114     -10.891   0.061  17.159  1.00 17.36     0.001 A 
ATOM    101  CD2 PHE A 114     -10.560  -1.274  17.414  1.00 18.39     0.007 A 
ENDBRANCH  95  96
ENDBRANCH  94  95
END_RES PHE A 114
BEGIN_RES VAL A 116
REMARK  1 active torsions:
REMARK  status: ('A' for Active; 'I' for Inactive)
REMARK   32  A    between atoms: CA   and  CB  
ROOT
ATOM    102  CA  VAL A 116      -2.467   0.283  18.565  1.00 13.48     0.180 C 
ENDROOT
BRANCH 102 103
ATOM    103  CB  VAL A 116      -3.101   1.238  19.599  1.00 20.86     0.009 C 
ATOM    104  CG1 VAL A 116      -3.035   2.675  19.076  1.00 25.01     0.012 C 
ATOM    105  CG2 VAL A 116      -4.520   0.825  19.914  1.00 25.34     0.012 C 
ENDBRANCH 102 103
END_RES VAL A 116
BEGIN_RES ILE A 123
REMARK  2 active torsions:
REMARK  status: ('A' for Active; 'I' for Inactive)
REMARK   33  A    between atoms: CA   and  CB  
REMARK   34  A    between atoms: CB   and  CG1 
ROOT
ATOM    106  CA  ILE A 123       1.557  -1.626  23.222  1.00 15.07     0.180 C 
ENDROOT
BRANCH 106 107
ATOM    107  CB  ILE A 123       1.697  -0.112  23.461  1.00 14.41     0.013 C 
ATOM    108  CG2 ILE A 123       3.086   0.202  23.988  1.00 18.35     0.012 C 
BRANCH 107 109
ATOM    109  CG1 ILE A 123       1.438   0.655  22.167  1.00 15.23     0.002 C 
ATOM    110  CD1 ILE A 123       0.193   1.508  22.207  1.00 14.67     0.005 C 
ENDBRANCH 107 109
ENDBRANCH 106 107
END_RES ILE A 123
BEGIN_RES LEU A 124
REMARK  2 active torsions:
REMARK  status: ('A' for Active; 'I' for Inactive)
REMARK   35  A    between atoms: CA   and  CB  
REMARK   36  A    between atoms: CB   and  CG  
ROOT
ATOM    111  CA  LEU A 124      -2.057  -2.686  23.524  1.00 11.86     0.177 C 
ENDROOT
BRANCH 111 112
ATOM    112  CB  LEU A 124      -2.698  -1.652  24.429  1.00 14.60     0.038 C 
BRANCH 112 113
ATOM    113  CG  LEU A 124      -2.630  -0.253  23.836  1.00 16.19    -0.020 C 
ATOM    114  CD1 LEU A 124      -4.052   0.201  23.456  1.00 22.07     0.009 C 
ATOM    115  CD2 LEU A 124      -1.987   0.683  24.829  1.00  9.12     0.009 C 
ENDBRANCH 112 113
ENDBRANCH 111 112
END_RES LEU A 124
BEGIN_RES PHE A 126
REMARK  2 active torsions:
REMARK  status: ('A' for Active; 'I' for Inactive)
REMARK   37  A    between atoms: CA   and  CB  
REMARK   38  A    between atoms: CB   and  CG  
ROOT
ATOM    116  CA  PHE A 126      -8.784  -4.792  22.233  1.00 23.15     0.180 C 
ENDROOT
BRANCH 116 117
ATOM    117  CB  PHE A 126      -9.823  -4.011  21.461  1.00 20.65     0.073 C 
BRANCH 117 118
ATOM    118  CG  PHE A 126     -10.953  -3.548  22.295  1.00 23.65    -0.056 A 
ATOM    119  CD2 PHE A 126     -10.772  -2.552  23.238  1.00 36.63     0.007 A 
ATOM    120  CE2 PHE A 126     -11.844  -2.113  24.027  1.00 36.27     0.001 A 
ATOM    121  CZ  PHE A 126     -13.099  -2.680  23.866  1.00 18.06     0.000 A 
ATOM    122  CE1 PHE A 126     -13.283  -3.673  22.925  1.00  5.50     0.001 A 
ATOM    123  CD1 PHE A 126     -12.212  -4.102  22.142  1.00 15.29     0.007 A 
ENDBRANCH 117 118
ENDBRANCH 116 117
END_RES PHE A 126
BEGIN_RES TRP A 131
REMARK  2 active torsions:
REMARK  status: ('A' for Active; 'I' for Inactive)
REMARK   39  A    between atoms: CA   and  CB  
REMARK   40  A    between atoms: CB   and  CG  
ROOT
ATOM    124  CA  TRP A 131      -8.096  -3.335  26.542  1.00 14.52     0.181 C 
ENDROOT
BRANCH 124 125
ATOM    125  CB  TRP A 131      -7.651  -1.877  26.607  1.00 13.06     0.075 C 
BRANCH 125 126
ATOM    126  CG  TRP A 131      -8.054  -1.050  25.406  1.00 16.97    -0.028 A 
ATOM    127  CD2 TRP A 131      -9.136  -0.118  25.338  1.00 11.34    -0.002 A 
ATOM    128  CE2 TRP A 131      -9.144   0.427  24.039  1.00  5.87     0.042 A 
ATOM    129  CE3 TRP A 131     -10.103   0.308  26.255  1.00  3.80     0.014 A 
ATOM    130  CZ2 TRP A 131     -10.080   1.380  23.634  1.00  1.35     0.030 A 
ATOM    131  NE1 TRP A 131      -8.114  -0.148  23.345  1.00 13.90    -0.365 N 
ATOM    132  CH2 TRP A 131     -11.016   1.780  24.554  1.00  1.00     0.002 A 
ATOM    133  CZ3 TRP A 131     -11.035   1.250  25.858  1.00  1.00     0.001 A 
ATOM    134  CD1 TRP A 131      -7.463  -1.034  24.172  1.00 17.22     0.096 A 
ATOM    135  H07 TRP A 131      -7.872   0.046  22.385  1.00 13.90     0.165 HD
ENDBRANCH 125 126
ENDBRANCH 124 125
END_RES TRP A 131
BEGIN_RES LEU A 148
REMARK  2 active torsions:
REMARK  status: ('A' for Active; 'I' for Inactive)
REMARK   41  A    between atoms: CA   and  CB  
REMARK   42  A    between atoms: CB   and  CG  
ROOT
ATOM    136  CA  LEU A 148      -9.018   3.259  29.295  1.00 16.99     0.177 C 
ENDROOT
BRANCH 136 137
ATOM    137  CB  LEU A 148      -8.166   2.574  28.236  1.00  6.39     0.038 C 
BRANCH 137 138
ATOM    138  CG  LEU A 148      -7.978   3.190  26.864  1.00  1.00    -0.020 C 
ATOM    139  CD2 LEU A 148      -6.570   3.681  26.702  1.00  1.00     0.009 C 
ATOM    140  CD1 LEU A 148      -8.963   4.335  26.718  1.00  2.71     0.009 C 
ENDBRANCH 137 138
ENDBRANCH 136 137
END_RES LEU A 148
BEGIN_RES THR A 154
REMARK  2 active torsions:
REMARK  status: ('A' for Active; 'I' for Inactive)
REMARK   43  A    between atoms: CA   and  CB  
REMARK   44  A    between atoms: CB   and  OG1 
ROOT
ATOM    141  CA  THR A 154     -15.990   3.959  24.426  1.00 20.45     0.205 C 
ENDROOT
BRANCH 141 142
ATOM    142  CB  THR A 154     -14.777   4.829  24.694  1.00 16.79     0.146 C 
ATOM    143  CG2 THR A 154     -13.667   4.495  23.716  1.00 20.24     0.042 C 
BRANCH 142 144
ATOM    144  OG1 THR A 154     -15.145   6.204  24.525  1.00 18.84    -0.393 OA
ATOM    145  H06 THR A 154     -14.400   6.694  24.170  1.00 18.84     0.210 HD
ENDBRANCH 142 144
ENDBRANCH 141 142
END_RES THR A 154
BEGIN_RES VAL A 158
REMARK  1 active torsions:
REMARK  status: ('A' for Active; 'I' for Inactive)
REMARK   45  A    between atoms: CA   and  CB  
ROOT
ATOM    146  CA  VAL A 158     -15.487  -0.189  19.892  1.00 15.49     0.180 C 
ENDROOT
BRANCH 146 147
ATOM    147  CB  VAL A 158     -14.291  -0.273  20.822  1.00  6.52     0.009 C 
ATOM    148  CG1 VAL A 158     -13.237  -1.201  20.263  1.00  1.00     0.012 C 
ATOM    149  CG2 VAL A 158     -13.735   1.104  21.015  1.00  5.99     0.012 C 
ENDBRANCH 146 147
END_RES VAL A 158
BEGIN_RES LEU A 161
REMARK  2 active torsions:
REMARK  status: ('A' for Active; 'I' for Inactive)
REMARK   46  A    between atoms: CA   and  CB  
REMARK   47  A    between atoms: CB   and  CG  
ROOT
ATOM    150  CA  LEU A 161     -18.031  -1.858  15.935  1.00 13.31     0.177 C 
ENDROOT
BRANCH 150 151
ATOM    151  CB  LEU A 161     -17.046  -0.706  16.001  1.00 14.13     0.038 C 
BRANCH 151 152
ATOM    152  CG  LEU A 161     -17.414   0.542  15.209  1.00 19.39    -0.020 C 
ATOM    153  CD2 LEU A 161     -18.857   0.910  15.454  1.00 27.75     0.009 C 
ATOM    154  CD1 LEU A 161     -17.192   0.273  13.745  1.00 18.59     0.009 C 
ENDBRANCH 151 152
ENDBRANCH 150 151
END_RES LEU A 161
BEGIN_RES GLN A 168
REMARK  3 active torsions:
REMARK  status: ('A' for Active; 'I' for Inactive)
REMARK   48  A    between atoms: CA   and  CB  
REMARK   49  A    between atoms: CB   and  CG  
REMARK   50  A    between atoms: CG   and  CD  
REMARK       I    between atoms: CD   and  NE2 
ROOT
ATOM    155  CA  GLN A 168     -22.035  -6.020   8.155  1.00 30.94     0.177 C 
ENDROOT
BRANCH 155 156
ATOM    156  CB  GLN A 168     -23.054  -5.218   8.946  1.00 41.76     0.044 C 
BRANCH 156 157
ATOM    157  CG  GLN A 168     -24.482  -5.432   8.522  1.00 61.20     0.105 C 
BRANCH 157 158
ATOM    158  CD  GLN A 168     -24.983  -4.308   7.635  1.00 75.49     0.215 C 
ATOM    159  NE2 GLN A 168     -24.827  -4.479   6.321  1.00 85.00    -0.370 N 
ATOM    160  H06 GLN A 168     -25.138  -3.765   5.679  1.00 85.00     0.159 HD
ATOM    161  H07 GLN A 168     -24.397  -5.323   5.970  1.00 85.00     0.159 HD
ATOM    162  OE1 GLN A 168     -25.499  -3.292   8.122  1.00 73.64    -0.274 OA
ENDBRANCH 157 158
ENDBRANCH 156 157
ENDBRANCH 155 156
END_RES GLN A 168
ENDMDL
MODEL 3
REMARK VINA RESULT:      -6.2      1.342      3.281
REMARK  Name = human_CD1d_SDS_pred.rank_0
REMARK  12 active torsions:
REMARK  status: ('A' for Active; 'I' for Inactive)
REMARK    1  A    between atoms: O_2  and  S_3
REMARK    2  A    between atoms: O_2  and  C_17
REMARK    3  A    between atoms: C_4  and  C_6
REMARK    4  A    between atoms: C_6  and  C_8
REMARK    5  A    between atoms: C_8  and  C_10
REMARK    6  A    between atoms: C_10  and  C_11
REMARK    7  A    between atoms: C_11  and  C_12
REMARK    8  A    between atoms: C_12  and  C_13
REMARK    9  A    between atoms: C_13  and  C_14
REMARK   10  A    between atoms: C_14  and  C_15
REMARK   11  A    between atoms: C_15  and  C_16
REMARK   12  A    between atoms: C_16  and  C_17
REMARK                            x       y       z     vdW  Elec       q    Type
REMARK                         _______ _______ _______ _____ _____    ______ ____
ROOT
ATOM      1  C   UNL     1     -12.774   4.073  15.482  0.00  0.00    +0.000 C 
ENDROOT
BRANCH   1   2
ATOM      2  C   UNL     1     -11.369   4.567  15.706  0.00  0.00    +0.000 C 
BRANCH   2   3
ATOM      3  C   UNL     1     -10.369   3.960  14.688  0.00  0.00    +0.000 C 
BRANCH   3   4
ATOM      4  C   UNL     1      -8.919   4.148  15.139  0.00  0.00    +0.000 C 
BRANCH   4   5
ATOM      5  C   UNL     1      -8.835   4.406  16.638  0.00  0.00    +0.000 C 
BRANCH   5   6
ATOM      6  C   UNL     1      -8.070   5.682  16.968  0.00  0.00    +0.000 C 
BRANCH   6   7
ATOM      7  C   UNL     1      -7.979   6.581  15.761  0.00  0.00    +0.000 C 
BRANCH   7   9
ATOM      8  C   UNL     1      -8.780   8.732  14.730  0.00  0.00    +0.000 C 
ATOM      9  C   UNL     1      -8.996   7.710  15.819  0.00  0.00    +0.000 C 
ENDBRANCH   7   9
ENDBRANCH   6   7
ENDBRANCH   5   6
ENDBRANCH   4   5
ENDBRANCH   3   4
ENDBRANCH   2   3
ENDBRANCH   1   2
BRANCH   1  10
ATOM     10  C   UNL     1     -12.822   2.575  15.189  0.00  0.00    +0.000 C 
BRANCH  10  11
ATOM     11  C   UNL     1     -13.672   2.266  13.940  0.00  0.00    +0.000 C 
BRANCH  11  12
ATOM     12  C   UNL     1     -13.051   1.146  13.130  0.00  0.00    +0.000 C 
BRANCH  12  13
ATOM     13  O   UNL     1     -14.022   0.503  12.340  0.00  0.00    +0.000 OA
BRANCH  13  14
ATOM     14  S   UNL     1     -13.798  -1.044  12.104  0.00  0.00    +0.000 S 
ATOM     15  O   UNL     1     -14.243  -1.375  10.758  0.00  0.00    +0.000 OA
ATOM     16  O   UNL     1     -12.424  -1.371  12.269  0.00  0.00    +0.000 OA
ATOM     17  O   UNL     1     -14.636  -1.758  13.126  0.00  0.00    +0.000 OA
ENDBRANCH  13  14
ENDBRANCH  12  13
ENDBRANCH  11  12
ENDBRANCH  10  11
ENDBRANCH   1  10
TORSDOF 12
BEGIN_RES LEU A  10
REMARK  2 active torsions:
REMARK  status: ('A' for Active; 'I' for Inactive)
REMARK    1  A    between atoms: CA   and  CB  
REMARK    2  A    between atoms: CB   and  CG  
ROOT
ATOM      1  CA  LEU A  10     -10.775  -4.871   5.898  1.00 25.14     0.177 C 
ENDROOT
BRANCH   1   2
ATOM      2  CB  LEU A  10     -12.191  -4.387   6.226  1.00 17.87     0.038 C 
BRANCH   2   3
ATOM      3  CG  LEU A  10     -12.417  -2.891   5.997  1.00 24.95    -0.020 C 
ATOM      4  CD2 LEU A  10     -13.667  -2.475   6.697  1.00 26.38     0.009 C 
ATOM      5  CD1 LEU A  10     -12.505  -2.576   4.514  1.00 28.12     0.009 C 
ENDBRANCH   2   3
ENDBRANCH   1   2
END_RES LEU A  10
BEGIN_RES CYS A  12
REMARK  2 active torsions:
REMARK  status: ('A' for Active; 'I' for Inactive)
REMARK    3  A    between atoms: CA   and  CB  
REMARK    4  A    between atoms: CB   and  SG  
ROOT
ATOM      6  CA  CYS A  12      -8.555   0.470   8.750  1.00 23.16     0.185 C 
ENDROOT
BRANCH   6   7
ATOM      7  CB  CYS A  12      -9.828   0.763   9.555  1.00 20.43     0.105 C 
BRANCH   7   8
ATOM      8  SG  CYS A  12     -10.939   2.026   8.863  1.00 24.64    -0.180 SA
ATOM      9  H04 CYS A  12     -10.325   2.658   7.854  1.00 24.64     0.101 HD
ENDBRANCH   7   8
ENDBRANCH   6   7
END_RES CYS A  12
BEGIN_RES GLN A  14
REMARK  3 active torsions:
REMARK  status: ('A' for Active; 'I' for Inactive)
REMARK    5  A    between atoms: CA   and  CB  
REMARK    6  A    between atoms: CB   and  CG  
REMARK    7  A    between atoms: CG   and  CD  
REMARK       I    between atoms: CD   and  NE2 
ROOT
ATOM     10  CA  GLN A  14      -4.645   5.402  11.377  1.00 10.43     0.177 C 
ENDROOT
BRANCH  10  11
ATOM     11  CB  GLN A  14      -5.541   5.549  12.608  1.00 14.45     0.044 C 
BRANCH  11  12
ATOM     12  CG  GLN A  14      -6.620   6.598  12.464  1.00 13.74     0.105 C 
BRANCH  12  13
ATOM     13  CD  GLN A  14      -6.055   7.989  12.308  1.00 16.29     0.215 C 
ATOM     14  NE2 GLN A  14      -6.655   8.771  11.437  1.00  8.57    -0.370 N 
ATOM     15  H06 GLN A  14      -6.321   9.713  11.291  1.00  8.57     0.159 HD
ATOM     16  H07 GLN A  14      -7.449   8.430  10.915  1.00  8.57     0.159 HD
ATOM     17  OE1 GLN A  14      -5.093   8.356  12.965  1.00 23.55    -0.274 OA
ENDBRANCH  12  13
ENDBRANCH  11  12
ENDBRANCH  10  11
END_RES GLN A  14
BEGIN_RES SER A  16
REMARK  2 active torsions:
REMARK  status: ('A' for Active; 'I' for Inactive)
REMARK    8  A    between atoms: CA   and  CB  
REMARK    9  A    between atoms: CB   and  OG  
ROOT
ATOM     18  CA  SER A  16      -1.305  10.019  14.282  1.00  2.34     0.200 C 
ENDROOT
BRANCH  18  19
ATOM     19  CB  SER A  16      -2.242   9.935  15.479  1.00  3.12     0.199 C 
BRANCH  19  20
ATOM     20  OG  SER A  16      -3.468   9.331  15.104  1.00  1.00    -0.398 OA
ATOM     21  H04 SER A  16      -3.542   8.471  15.522  1.00  1.00     0.209 HD
ENDBRANCH  19  20
ENDBRANCH  18  19
END_RES SER A  16
BEGIN_RES LEU A  32
REMARK  2 active torsions:
REMARK  status: ('A' for Active; 'I' for Inactive)
REMARK   10  A    between atoms: CA   and  CB  
REMARK   11  A    between atoms: CB   and  CG  
ROOT
ATOM     22  CA  LEU A  32     -10.272  -4.106   1.587  1.00 16.16     0.177 C 
ENDROOT
BRANCH  22  23
ATOM     23  CB  LEU A  32     -11.613  -3.858   0.880  1.00 12.35     0.038 C 
BRANCH  23  24
ATOM     24  CG  LEU A  32     -12.530  -5.097   0.937  1.00  9.77    -0.020 C 
ATOM     25  CD1 LEU A  32     -13.017  -5.325   2.348  1.00  4.35     0.009 C 
ATOM     26  CD2 LEU A  32     -13.708  -4.936   0.013  1.00 10.60     0.009 C 
ENDBRANCH  23  24
ENDBRANCH  22  23
END_RES LEU A  32
BEGIN_RES HIS A  38
REMARK  2 active torsions:
REMARK  status: ('A' for Active; 'I' for Inactive)
REMARK   12  A    between atoms: CA   and  CB  
REMARK   13  A    between atoms: CB   and  CG  
ROOT
ATOM     27  CA  HIS A  38     -10.959   4.941   1.621  1.00 16.94     0.182 C 
ENDROOT
BRANCH  27  28
ATOM     28  CB  HIS A  38     -11.810   4.840   2.881  1.00 15.47     0.095 C 
BRANCH  28  29
ATOM     29  CG  HIS A  38     -12.993   3.937   2.740  1.00 18.62     0.053 A 
ATOM     30  CD2 HIS A  38     -14.155   4.095   2.062  1.00 15.06     0.116 A 
ATOM     31  NE2 HIS A  38     -14.884   2.947   2.242  1.00 18.12    -0.359 N 
ATOM     32  CE1 HIS A  38     -14.197   2.115   3.002  1.00 14.78     0.207 A 
ATOM     33  H06 HIS A  38     -15.799   2.767   1.855  1.00 18.12     0.166 HD
ATOM     34  ND1 HIS A  38     -13.053   2.688   3.317  1.00 16.58    -0.247 NA
ENDBRANCH  28  29
ENDBRANCH  27  28
END_RES HIS A  38
BEGIN_RES TRP A  63
REMARK  2 active torsions:
REMARK  status: ('A' for Active; 'I' for Inactive)
REMARK   14  A    between atoms: CA   and  CB  
REMARK   15  A    between atoms: CB   and  CG  
ROOT
ATOM     35  CA  TRP A  63     -22.437   6.257   6.543  1.00 27.04     0.181 C 
ENDROOT
BRANCH  35  36
ATOM     36  CB  TRP A  63     -22.360   6.642   5.068  1.00 31.37     0.075 C 
BRANCH  36  37
ATOM     37  CG  TRP A  63     -20.953   6.799   4.531  1.00 34.37    -0.028 A 
ATOM     38  CD2 TRP A  63     -19.885   5.845   4.604  1.00 33.79    -0.002 A 
ATOM     39  CE3 TRP A  63     -19.747   4.582   5.184  1.00 32.99     0.014 A 
ATOM     40  CE2 TRP A  63     -18.785   6.396   3.910  1.00 35.84     0.042 A 
ATOM     41  CZ3 TRP A  63     -18.536   3.917   5.056  1.00 32.93     0.001 A 
ATOM     42  CH2 TRP A  63     -17.461   4.492   4.360  1.00 39.24     0.002 A 
ATOM     43  CZ2 TRP A  63     -17.567   5.728   3.780  1.00 37.99     0.030 A 
ATOM     44  NE1 TRP A  63     -19.171   7.622   3.443  1.00 37.98    -0.365 N 
ATOM     45  H06 TRP A  63     -18.594   8.255   2.907  1.00 37.98     0.165 HD
ATOM     46  CD1 TRP A  63     -20.471   7.855   3.823  1.00 38.16     0.096 A 
ENDBRANCH  36  37
ENDBRANCH  35  36
END_RES TRP A  63
BEGIN_RES LEU A  66
REMARK  2 active torsions:
REMARK  status: ('A' for Active; 'I' for Inactive)
REMARK   16  A    between atoms: CA   and  CB  
REMARK   17  A    between atoms: CB   and  CG  
ROOT
ATOM     47  CA  LEU A  66     -20.004   6.489  11.120  1.00 10.90     0.177 C 
ENDROOT
BRANCH  47  48
ATOM     48  CB  LEU A  66     -19.626   5.453  10.069  1.00 13.57     0.038 C 
BRANCH  48  49
ATOM     49  CG  LEU A  66     -19.382   4.024  10.552  1.00  8.73    -0.020 C 
ATOM     50  CD1 LEU A  66     -19.167   3.996  12.043  1.00 14.23     0.009 C 
ATOM     51  CD2 LEU A  66     -20.580   3.185  10.186  1.00  1.92     0.009 C 
ENDBRANCH  48  49
ENDBRANCH  47  48
END_RES LEU A  66
BEGIN_RES PHE A  70
REMARK  2 active torsions:
REMARK  status: ('A' for Active; 'I' for Inactive)
REMARK   18  A    between atoms: CA   and  CB  
REMARK   19  A    between atoms: CB   and  CG  
ROOT
ATOM     52  CA  PHE A  70     -14.974   9.434  13.165  1.00  8.78     0.180 C 
ENDROOT
BRANCH  52  53
ATOM     53  CB  PHE A  70     -14.707   9.132  11.681  1.00  6.33     0.073 C 
BRANCH  53  54
ATOM     54  CG  PHE A  70     -13.937   7.859  11.459  1.00  3.42    -0.056 A 
ATOM     55  CD1 PHE A  70     -13.698   7.381  10.179  1.00 13.88     0.007 A 
ATOM     56  CE1 PHE A  70     -13.018   6.167   9.980  1.00 12.71     0.001 A 
ATOM     57  CZ  PHE A  70     -12.573   5.424  11.074  1.00  4.21     0.000 A 
ATOM     58  CE2 PHE A  70     -12.804   5.891  12.355  1.00  2.83     0.001 A 
ATOM     59  CD2 PHE A  70     -13.484   7.106  12.543  1.00  1.00     0.007 A 
ENDBRANCH  53  54
ENDBRANCH  52  53
END_RES PHE A  70
BEGIN_RES TYR A  73
REMARK  3 active torsions:
REMARK  status: ('A' for Active; 'I' for Inactive)
REMARK   20  A    between atoms: CA   and  CB  
REMARK   21  A    between atoms: CB   and  CG  
REMARK   22  A    between atoms: CZ   and  OH  
ROOT
ATOM     60  CA  TYR A  73     -13.212  10.166  17.260  1.00 12.17     0.180 C 
ENDROOT
BRANCH  60  61
ATOM     61  CB  TYR A  73     -13.301   8.846  16.517  1.00 12.84     0.073 C 
BRANCH  61  62
ATOM     62  CG  TYR A  73     -13.141   7.663  17.407  1.00 15.89    -0.056 A 
ATOM     63  CD1 TYR A  73     -14.201   6.826  17.674  1.00 16.00     0.010 A 
ATOM     64  CE1 TYR A  73     -14.062   5.735  18.532  1.00 13.55     0.037 A 
ATOM     65  CZ  TYR A  73     -12.839   5.493  19.124  1.00 18.13     0.065 A 
ATOM     66  CE2 TYR A  73     -11.764   6.313  18.873  1.00 15.89     0.037 A 
ATOM     67  CD2 TYR A  73     -11.920   7.394  18.015  1.00 21.86     0.010 A 
BRANCH  65  68
ATOM     68  OH  TYR A  73     -12.677   4.421  19.968  1.00 12.12    -0.361 OA
ATOM     69  H08 TYR A  73     -13.311   4.480  20.686  1.00 12.12     0.217 HD
ENDBRANCH  65  68
ENDBRANCH  61  62
ENDBRANCH  60  61
END_RES TYR A  73
BEGIN_RES PHE A  77
REMARK  2 active torsions:
REMARK  status: ('A' for Active; 'I' for Inactive)
REMARK   23  A    between atoms: CA   and  CB  
REMARK   24  A    between atoms: CB   and  CG  
ROOT
ATOM     70  CA  PHE A  77      -8.400  10.581  20.110  1.00 17.17     0.180 C 
ENDROOT
BRANCH  70  71
ATOM     71  CB  PHE A  77      -8.228   9.750  18.851  1.00 10.44     0.073 C 
BRANCH  71  72
ATOM     72  CG  PHE A  77      -7.151   8.716  18.953  1.00  6.07    -0.056 A 
ATOM     73  CD2 PHE A  77      -7.210   7.738  19.920  1.00  9.61     0.007 A 
ATOM     74  CE2 PHE A  77      -6.215   6.773  20.021  1.00  1.00     0.001 A 
ATOM     75  CZ  PHE A  77      -5.147   6.786  19.140  1.00  1.92     0.000 A 
ATOM     76  CE1 PHE A  77      -5.074   7.756  18.167  1.00  9.25     0.001 A 
ATOM     77  CD1 PHE A  77      -6.078   8.720  18.077  1.00  9.63     0.007 A 
ENDBRANCH  71  72
ENDBRANCH  70  71
END_RES PHE A  77
BEGIN_RES LEU A  96
REMARK  2 active torsions:
REMARK  status: ('A' for Active; 'I' for Inactive)
REMARK   25  A    between atoms: CA   and  CB  
REMARK   26  A    between atoms: CB   and  CG  
ROOT
ATOM     78  CA  LEU A  96       0.717   6.481  17.359  1.00 16.08     0.177 C 
ENDROOT
BRANCH  78  79
ATOM     79  CB  LEU A  96      -0.370   7.101  18.230  1.00 18.83     0.038 C 
BRANCH  79  80
ATOM     80  CG  LEU A  96      -0.195   6.862  19.730  1.00 19.03    -0.020 C 
ATOM     81  CD1 LEU A  96       0.519   8.050  20.332  1.00 28.17     0.009 C 
ATOM     82  CD2 LEU A  96      -1.541   6.721  20.402  1.00 22.01     0.009 C 
ENDBRANCH  79  80
ENDBRANCH  78  79
END_RES LEU A  96
BEGIN_RES VAL A  98
REMARK  1 active torsions:
REMARK  status: ('A' for Active; 'I' for Inactive)
REMARK   27  A    between atoms: CA   and  CB  
ROOT
ATOM     83  CA  VAL A  98      -3.928   2.082  14.897  1.00 19.83     0.180 C 
ENDROOT
BRANCH  83  84
ATOM     84  CB  VAL A  98      -5.203   2.807  15.281  1.00 17.87     0.009 C 
ATOM     85  CG2 VAL A  98      -4.917   4.268  15.515  1.00 29.90     0.012 C 
ATOM     86  CG1 VAL A  98      -5.794   2.170  16.521  1.00 14.79     0.012 C 
ENDBRANCH  83  84
END_RES VAL A  98
BEGIN_RES ASN A 112
REMARK  2 active torsions:
REMARK  status: ('A' for Active; 'I' for Inactive)
REMARK   28  A    between atoms: CA   and  CB  
REMARK   29  A    between atoms: CB   and  CG  
REMARK       I    between atoms: CG   and  ND2 
ROOT
ATOM     87  CA  ASN A 112     -11.790  -8.793  14.069  1.00 37.70     0.185 C 
ENDROOT
BRANCH  87  88
ATOM     88  CB  ASN A 112     -12.992  -7.945  14.465  1.00 26.24     0.137 C 
BRANCH  88  89
ATOM     89  CG  ASN A 112     -13.810  -8.560  15.578  1.00 21.77     0.217 C 
ATOM     90  ND2 ASN A 112     -14.956  -9.136  15.216  1.00  9.31    -0.370 N 
ATOM     91  H04 ASN A 112     -15.549  -9.564  15.913  1.00  9.31     0.159 HD
ATOM     92  H05 ASN A 112     -15.232  -9.146  14.244  1.00  9.31     0.159 HD
ATOM     93  OD1 ASN A 112     -13.424  -8.516  16.752  1.00 21.61    -0.274 OA
ENDBRANCH  88  89
ENDBRANCH  87  88
END_RES ASN A 112
BEGIN_RES PHE A 114
REMARK  2 active torsions:
REMARK  status: ('A' for Active; 'I' for Inactive)
REMARK   30  A    between atoms: CA   and  CB  
REMARK   31  A    between atoms: CB   and  CG  
ROOT
ATOM     94  CA  PHE A 114      -7.754  -3.619  17.012  1.00 26.06     0.180 C 
ENDROOT
BRANCH  94  95
ATOM     95  CB  PHE A 114      -8.890  -3.080  17.867  1.00 19.95     0.073 C 
BRANCH  95  96
ATOM     96  CG  PHE A 114      -9.219  -1.651  17.582  1.00 17.65    -0.056 A 
ATOM     97  CD1 PHE A 114     -10.542  -1.235  17.458  1.00 13.01     0.007 A 
ATOM     98  CE1 PHE A 114     -10.848   0.087  17.164  1.00  6.74     0.001 A 
ATOM     99  CZ  PHE A 114      -9.827   1.018  16.992  1.00  6.27     0.000 A 
ATOM    100  CE2 PHE A 114      -8.507   0.616  17.114  1.00 17.36     0.001 A 
ATOM    101  CD2 PHE A 114      -8.206  -0.718  17.409  1.00 18.39     0.007 A 
ENDBRANCH  95  96
ENDBRANCH  94  95
END_RES PHE A 114
BEGIN_RES VAL A 116
REMARK  1 active torsions:
REMARK  status: ('A' for Active; 'I' for Inactive)
REMARK   32  A    between atoms: CA   and  CB  
ROOT
ATOM    102  CA  VAL A 116      -2.467   0.283  18.565  1.00 13.48     0.180 C 
ENDROOT
BRANCH 102 103
ATOM    103  CB  VAL A 116      -3.101   1.238  19.599  1.00 20.86     0.009 C 
ATOM    104  CG1 VAL A 116      -3.054   2.673  19.067  1.00 25.01     0.012 C 
ATOM    105  CG2 VAL A 116      -4.513   0.813  19.930  1.00 25.34     0.012 C 
ENDBRANCH 102 103
END_RES VAL A 116
BEGIN_RES ILE A 123
REMARK  2 active torsions:
REMARK  status: ('A' for Active; 'I' for Inactive)
REMARK   33  A    between atoms: CA   and  CB  
REMARK   34  A    between atoms: CB   and  CG1 
ROOT
ATOM    106  CA  ILE A 123       1.557  -1.626  23.222  1.00 15.07     0.180 C 
ENDROOT
BRANCH 106 107
ATOM    107  CB  ILE A 123       1.697  -0.112  23.461  1.00 14.41     0.013 C 
ATOM    108  CG2 ILE A 123       3.090   0.203  23.978  1.00 18.35     0.012 C 
BRANCH 107 109
ATOM    109  CG1 ILE A 123       1.427   0.656  22.169  1.00 15.23     0.002 C 
ATOM    110  CD1 ILE A 123       0.208   1.544  22.236  1.00 14.67     0.005 C 
ENDBRANCH 107 109
ENDBRANCH 106 107
END_RES ILE A 123
BEGIN_RES LEU A 124
REMARK  2 active torsions:
REMARK  status: ('A' for Active; 'I' for Inactive)
REMARK   35  A    between atoms: CA   and  CB  
REMARK   36  A    between atoms: CB   and  CG  
ROOT
ATOM    111  CA  LEU A 124      -2.057  -2.686  23.524  1.00 11.86     0.177 C 
ENDROOT
BRANCH 111 112
ATOM    112  CB  LEU A 124      -2.698  -1.652  24.429  1.00 14.60     0.038 C 
BRANCH 112 113
ATOM    113  CG  LEU A 124      -2.626  -0.252  23.838  1.00 16.19    -0.020 C 
ATOM    114  CD1 LEU A 124      -4.048   0.211  23.469  1.00 22.07     0.009 C 
ATOM    115  CD2 LEU A 124      -1.971   0.678  24.829  1.00  9.12     0.009 C 
ENDBRANCH 112 113
ENDBRANCH 111 112
END_RES LEU A 124
BEGIN_RES PHE A 126
REMARK  2 active torsions:
REMARK  status: ('A' for Active; 'I' for Inactive)
REMARK   37  A    between atoms: CA   and  CB  
REMARK   38  A    between atoms: CB   and  CG  
ROOT
ATOM    116  CA  PHE A 126      -8.784  -4.792  22.233  1.00 23.15     0.180 C 
ENDROOT
BRANCH 116 117
ATOM    117  CB  PHE A 126      -9.823  -4.011  21.461  1.00 20.65     0.073 C 
BRANCH 117 118
ATOM    118  CG  PHE A 126     -10.955  -3.553  22.294  1.00 23.65    -0.056 A 
ATOM    119  CD2 PHE A 126     -12.208  -4.125  22.158  1.00 36.63     0.007 A 
ATOM    120  CE2 PHE A 126     -13.281  -3.691  22.949  1.00 36.27     0.001 A 
ATOM    121  CZ  PHE A 126     -13.089  -2.679  23.878  1.00 18.06     0.000 A 
ATOM    122  CE1 PHE A 126     -11.840  -2.108  24.019  1.00  5.50     0.001 A 
ATOM    123  CD1 PHE A 126     -10.778  -2.548  23.229  1.00 15.29     0.007 A 
ENDBRANCH 117 118
ENDBRANCH 116 117
END_RES PHE A 126
BEGIN_RES TRP A 131
REMARK  2 active torsions:
REMARK  status: ('A' for Active; 'I' for Inactive)
REMARK   39  A    between atoms: CA   and  CB  
REMARK   40  A    between atoms: CB   and  CG  
ROOT
ATOM    124  CA  TRP A 131      -8.096  -3.335  26.542  1.00 14.52     0.181 C 
ENDROOT
BRANCH 124 125
ATOM    125  CB  TRP A 131      -7.651  -1.877  26.607  1.00 13.06     0.075 C 
BRANCH 125 126
ATOM    126  CG  TRP A 131      -8.051  -1.051  25.404  1.00 16.97    -0.028 A 
ATOM    127  CD2 TRP A 131      -9.138  -0.125  25.330  1.00 11.34    -0.002 A 
ATOM    128  CE2 TRP A 131      -9.140   0.421  24.032  1.00  5.87     0.042 A 
ATOM    129  CE3 TRP A 131     -10.113   0.294  26.242  1.00  3.80     0.014 A 
ATOM    130  CZ2 TRP A 131     -10.079   1.369  23.622  1.00  1.35     0.030 A 
ATOM    131  NE1 TRP A 131      -8.103  -0.147  23.345  1.00 13.90    -0.365 N 
ATOM    132  CH2 TRP A 131     -11.024   1.764  24.537  1.00  1.00     0.002 A 
ATOM    133  CZ3 TRP A 131     -11.048   1.232  25.840  1.00  1.00     0.001 A 
ATOM    134  CD1 TRP A 131      -7.452  -1.030  24.174  1.00 17.22     0.096 A 
ATOM    135  H07 TRP A 131      -7.855   0.050  22.386  1.00 13.90     0.165 HD
ENDBRANCH 125 126
ENDBRANCH 124 125
END_RES TRP A 131
BEGIN_RES LEU A 148
REMARK  2 active torsions:
REMARK  status: ('A' for Active; 'I' for Inactive)
REMARK   41  A    between atoms: CA   and  CB  
REMARK   42  A    between atoms: CB   and  CG  
ROOT
ATOM    136  CA  LEU A 148      -9.018   3.259  29.295  1.00 16.99     0.177 C 
ENDROOT
BRANCH 136 137
ATOM    137  CB  LEU A 148      -8.166   2.574  28.236  1.00  6.39     0.038 C 
BRANCH 137 138
ATOM    138  CG  LEU A 148      -8.015   3.166  26.850  1.00  1.00    -0.020 C 
ATOM    139  CD2 LEU A 148      -6.819   2.579  26.159  1.00  1.00     0.009 C 
ATOM    140  CD1 LEU A 148      -7.866   4.670  26.989  1.00  2.71     0.009 C 
ENDBRANCH 137 138
ENDBRANCH 136 137
END_RES LEU A 148
BEGIN_RES THR A 154
REMARK  2 active torsions:
REMARK  status: ('A' for Active; 'I' for Inactive)
REMARK   43  A    between atoms: CA   and  CB  
REMARK   44  A    between atoms: CB   and  OG1 
ROOT
ATOM    141  CA  THR A 154     -15.990   3.959  24.426  1.00 20.45     0.205 C 
ENDROOT
BRANCH 141 142
ATOM    142  CB  THR A 154     -14.777   4.829  24.694  1.00 16.79     0.146 C 
ATOM    143  CG2 THR A 154     -13.681   4.522  23.692  1.00 20.24     0.042 C 
BRANCH 142 144
ATOM    144  OG1 THR A 154     -15.154   6.205  24.560  1.00 18.84    -0.393 OA
ATOM    145  H06 THR A 154     -14.366   6.747  24.477  1.00 18.84     0.210 HD
ENDBRANCH 142 144
ENDBRANCH 141 142
END_RES THR A 154
BEGIN_RES VAL A 158
REMARK  1 active torsions:
REMARK  status: ('A' for Active; 'I' for Inactive)
REMARK   45  A    between atoms: CA   and  CB  
ROOT
ATOM    146  CA  VAL A 158     -15.487  -0.189  19.892  1.00 15.49     0.180 C 
ENDROOT
BRANCH 146 147
ATOM    147  CB  VAL A 158     -14.291  -0.273  20.822  1.00  6.52     0.009 C 
ATOM    148  CG1 VAL A 158     -13.250  -1.224  20.277  1.00  1.00     0.012 C 
ATOM    149  CG2 VAL A 158     -13.717   1.100  20.991  1.00  5.99     0.012 C 
ENDBRANCH 146 147
END_RES VAL A 158
BEGIN_RES LEU A 161
REMARK  2 active torsions:
REMARK  status: ('A' for Active; 'I' for Inactive)
REMARK   46  A    between atoms: CA   and  CB  
REMARK   47  A    between atoms: CB   and  CG  
ROOT
ATOM    150  CA  LEU A 161     -18.031  -1.858  15.935  1.00 13.31     0.177 C 
ENDROOT
BRANCH 150 151
ATOM    151  CB  LEU A 161     -17.046  -0.706  16.001  1.00 14.13     0.038 C 
BRANCH 151 152
ATOM    152  CG  LEU A 161     -17.502   0.608  15.379  1.00 19.39    -0.020 C 
ATOM    153  CD2 LEU A 161     -17.221   0.609  13.896  1.00 27.75     0.009 C 
ATOM    154  CD1 LEU A 161     -16.768   1.741  16.044  1.00 18.59     0.009 C 
ENDBRANCH 151 152
ENDBRANCH 150 151
END_RES LEU A 161
BEGIN_RES GLN A 168
REMARK  3 active torsions:
REMARK  status: ('A' for Active; 'I' for Inactive)
REMARK   48  A    between atoms: CA   and  CB  
REMARK   49  A    between atoms: CB   and  CG  
REMARK   50  A    between atoms: CG   and  CD  
REMARK       I    between atoms: CD   and  NE2 
ROOT
ATOM    155  CA  GLN A 168     -22.035  -6.020   8.155  1.00 30.94     0.177 C 
ENDROOT
BRANCH 155 156
ATOM    156  CB  GLN A 168     -23.054  -5.218   8.946  1.00 41.76     0.044 C 
BRANCH 156 157
ATOM    157  CG  GLN A 168     -24.481  -5.430   8.520  1.00 61.20     0.105 C 
BRANCH 157 158
ATOM    158  CD  GLN A 168     -24.981  -4.303   7.637  1.00 75.49     0.215 C 
ATOM    159  NE2 GLN A 168     -24.830  -4.472   6.322  1.00 85.00    -0.370 N 
ATOM    160  H06 GLN A 168     -25.141  -3.756   5.682  1.00 85.00     0.159 HD
ATOM    161  H07 GLN A 168     -24.404  -5.317   5.968  1.00 85.00     0.159 HD
ATOM    162  OE1 GLN A 168     -25.493  -3.286   8.127  1.00 73.64    -0.274 OA
ENDBRANCH 157 158
ENDBRANCH 156 157
ENDBRANCH 155 156
END_RES GLN A 168
ENDMDL
MODEL 4
REMARK VINA RESULT:      -6.2      2.115      6.919
REMARK  Name = human_CD1d_SDS_pred.rank_0
REMARK  12 active torsions:
REMARK  status: ('A' for Active; 'I' for Inactive)
REMARK    1  A    between atoms: O_2  and  S_3
REMARK    2  A    between atoms: O_2  and  C_17
REMARK    3  A    between atoms: C_4  and  C_6
REMARK    4  A    between atoms: C_6  and  C_8
REMARK    5  A    between atoms: C_8  and  C_10
REMARK    6  A    between atoms: C_10  and  C_11
REMARK    7  A    between atoms: C_11  and  C_12
REMARK    8  A    between atoms: C_12  and  C_13
REMARK    9  A    between atoms: C_13  and  C_14
REMARK   10  A    between atoms: C_14  and  C_15
REMARK   11  A    between atoms: C_15  and  C_16
REMARK   12  A    between atoms: C_16  and  C_17
REMARK                            x       y       z     vdW  Elec       q    Type
REMARK                         _______ _______ _______ _____ _____    ______ ____
ROOT
ATOM      1  C   UNL     1      -5.420   4.031  21.674  0.00  0.00    +0.000 C 
ENDROOT
BRANCH   1   2
ATOM      2  C   UNL     1      -4.073   4.576  22.073  0.00  0.00    +0.000 C 
BRANCH   2   3
ATOM      3  C   UNL     1      -3.505   3.863  23.328  0.00  0.00    +0.000 C 
BRANCH   3   4
ATOM      4  C   UNL     1      -3.804   4.648  24.607  0.00  0.00    +0.000 C 
BRANCH   4   5
ATOM      5  C   UNL     1      -2.884   4.224  25.744  0.00  0.00    +0.000 C 
BRANCH   5   6
ATOM      6  C   UNL     1      -1.572   5.000  25.752  0.00  0.00    +0.000 C 
BRANCH   6   7
ATOM      7  C   UNL     1      -0.437   4.143  25.253  0.00  0.00    +0.000 C 
BRANCH   7   9
ATOM      8  C   UNL     1       0.977   6.117  24.591  0.00  0.00    +0.000 C 
ATOM      9  C   UNL     1       0.341   4.826  24.139  0.00  0.00    +0.000 C 
ENDBRANCH   7   9
ENDBRANCH   6   7
ENDBRANCH   5   6
ENDBRANCH   4   5
ENDBRANCH   3   4
ENDBRANCH   2   3
ENDBRANCH   1   2
BRANCH   1  10
ATOM     10  C   UNL     1      -5.863   4.534  20.301  0.00  0.00    +0.000 C 
BRANCH  10  11
ATOM     11  C   UNL     1      -5.295   5.936  19.999  0.00  0.00    +0.000 C 
BRANCH  11  12
ATOM     12  C   UNL     1      -4.975   6.081  18.526  0.00  0.00    +0.000 C 
BRANCH  12  13
ATOM     13  O   UNL     1      -5.783   7.069  17.933  0.00  0.00    +0.000 OA
BRANCH  13  14
ATOM     14  S   UNL     1      -5.886   7.015  16.357  0.00  0.00    +0.000 S 
ATOM     15  O   UNL     1      -6.859   5.996  15.992  0.00  0.00    +0.000 OA
ATOM     16  O   UNL     1      -6.278   8.283  15.848  0.00  0.00    +0.000 OA
ATOM     17  O   UNL     1      -4.520   6.644  15.851  0.00  0.00    +0.000 OA
ENDBRANCH  13  14
ENDBRANCH  12  13
ENDBRANCH  11  12
ENDBRANCH  10  11
ENDBRANCH   1  10
TORSDOF 12
BEGIN_RES LEU A  10
REMARK  2 active torsions:
REMARK  status: ('A' for Active; 'I' for Inactive)
REMARK    1  A    between atoms: CA   and  CB  
REMARK    2  A    between atoms: CB   and  CG  
ROOT
ATOM      1  CA  LEU A  10     -10.775  -4.871   5.898  1.00 25.14     0.177 C 
ENDROOT
BRANCH   1   2
ATOM      2  CB  LEU A  10     -12.191  -4.387   6.226  1.00 17.87     0.038 C 
BRANCH   2   3
ATOM      3  CG  LEU A  10     -12.390  -2.876   6.092  1.00 24.95    -0.020 C 
ATOM      4  CD2 LEU A  10     -13.674  -2.494   6.748  1.00 26.38     0.009 C 
ATOM      5  CD1 LEU A  10     -12.389  -2.455   4.632  1.00 28.12     0.009 C 
ENDBRANCH   2   3
ENDBRANCH   1   2
END_RES LEU A  10
BEGIN_RES CYS A  12
REMARK  2 active torsions:
REMARK  status: ('A' for Active; 'I' for Inactive)
REMARK    3  A    between atoms: CA   and  CB  
REMARK    4  A    between atoms: CB   and  SG  
ROOT
ATOM      6  CA  CYS A  12      -8.555   0.470   8.750  1.00 23.16     0.185 C 
ENDROOT
BRANCH   6   7
ATOM      7  CB  CYS A  12      -9.828   0.763   9.555  1.00 20.43     0.105 C 
BRANCH   7   8
ATOM      8  SG  CYS A  12     -11.304   1.200   8.586  1.00 24.64    -0.180 SA
ATOM      9  H04 CYS A  12     -12.080   2.026   9.301  1.00 24.64     0.101 HD
ENDBRANCH   7   8
ENDBRANCH   6   7
END_RES CYS A  12
BEGIN_RES GLN A  14
REMARK  3 active torsions:
REMARK  status: ('A' for Active; 'I' for Inactive)
REMARK    5  A    between atoms: CA   and  CB  
REMARK    6  A    between atoms: CB   and  CG  
REMARK    7  A    between atoms: CG   and  CD  
REMARK       I    between atoms: CD   and  NE2 
ROOT
ATOM     10  CA  GLN A  14      -4.645   5.402  11.377  1.00 10.43     0.177 C 
ENDROOT
BRANCH  10  11
ATOM     11  CB  GLN A  14      -5.541   5.549  12.608  1.00 14.45     0.044 C 
BRANCH  11  12
ATOM     12  CG  GLN A  14      -6.615   6.603  12.467  1.00 13.74     0.105 C 
BRANCH  12  13
ATOM     13  CD  GLN A  14      -6.043   7.986  12.266  1.00 16.29     0.215 C 
ATOM     14  NE2 GLN A  14      -6.679   8.765  11.418  1.00  8.57    -0.370 N 
ATOM     15  H06 GLN A  14      -6.343   9.702  11.244  1.00  8.57     0.159 HD
ATOM     16  H07 GLN A  14      -7.502   8.427  10.941  1.00  8.57     0.159 HD
ATOM     17  OE1 GLN A  14      -5.045   8.349  12.869  1.00 23.55    -0.274 OA
ENDBRANCH  12  13
ENDBRANCH  11  12
ENDBRANCH  10  11
END_RES GLN A  14
BEGIN_RES SER A  16
REMARK  2 active torsions:
REMARK  status: ('A' for Active; 'I' for Inactive)
REMARK    8  A    between atoms: CA   and  CB  
REMARK    9  A    between atoms: CB   and  OG  
ROOT
ATOM     18  CA  SER A  16      -1.305  10.019  14.282  1.00  2.34     0.200 C 
ENDROOT
BRANCH  18  19
ATOM     19  CB  SER A  16      -2.242   9.935  15.479  1.00  3.12     0.199 C 
BRANCH  19  20
ATOM     20  OG  SER A  16      -3.471   9.340  15.102  1.00  1.00    -0.398 OA
ATOM     21  H04 SER A  16      -3.721   8.681  15.754  1.00  1.00     0.209 HD
ENDBRANCH  19  20
ENDBRANCH  18  19
END_RES SER A  16
BEGIN_RES LEU A  32
REMARK  2 active torsions:
REMARK  status: ('A' for Active; 'I' for Inactive)
REMARK   10  A    between atoms: CA   and  CB  
REMARK   11  A    between atoms: CB   and  CG  
ROOT
ATOM     22  CA  LEU A  32     -10.272  -4.106   1.587  1.00 16.16     0.177 C 
ENDROOT
BRANCH  22  23
ATOM     23  CB  LEU A  32     -11.613  -3.858   0.880  1.00 12.35     0.038 C 
BRANCH  23  24
ATOM     24  CG  LEU A  32     -12.576  -5.052   1.041  1.00  9.77    -0.020 C 
ATOM     25  CD1 LEU A  32     -13.017  -5.181   2.479  1.00  4.35     0.009 C 
ATOM     26  CD2 LEU A  32     -13.782  -4.892   0.152  1.00 10.60     0.009 C 
ENDBRANCH  23  24
ENDBRANCH  22  23
END_RES LEU A  32
BEGIN_RES HIS A  38
REMARK  2 active torsions:
REMARK  status: ('A' for Active; 'I' for Inactive)
REMARK   12  A    between atoms: CA   and  CB  
REMARK   13  A    between atoms: CB   and  CG  
ROOT
ATOM     27  CA  HIS A  38     -10.959   4.941   1.621  1.00 16.94     0.182 C 
ENDROOT
BRANCH  27  28
ATOM     28  CB  HIS A  38     -11.810   4.840   2.881  1.00 15.47     0.095 C 
BRANCH  28  29
ATOM     29  CG  HIS A  38     -12.995   3.941   2.739  1.00 18.62     0.053 A 
ATOM     30  CD2 HIS A  38     -14.158   4.103   2.063  1.00 15.06     0.116 A 
ATOM     31  NE2 HIS A  38     -14.889   2.956   2.240  1.00 18.12    -0.359 N 
ATOM     32  CE1 HIS A  38     -14.203   2.121   2.996  1.00 14.78     0.207 A 
ATOM     33  H06 HIS A  38     -15.805   2.780   1.853  1.00 18.12     0.166 HD
ATOM     34  ND1 HIS A  38     -13.057   2.690   3.312  1.00 16.58    -0.247 NA
ENDBRANCH  28  29
ENDBRANCH  27  28
END_RES HIS A  38
BEGIN_RES TRP A  63
REMARK  2 active torsions:
REMARK  status: ('A' for Active; 'I' for Inactive)
REMARK   14  A    between atoms: CA   and  CB  
REMARK   15  A    between atoms: CB   and  CG  
ROOT
ATOM     35  CA  TRP A  63     -22.437   6.257   6.543  1.00 27.04     0.181 C 
ENDROOT
BRANCH  35  36
ATOM     36  CB  TRP A  63     -22.360   6.642   5.068  1.00 31.37     0.075 C 
BRANCH  36  37
ATOM     37  CG  TRP A  63     -20.953   6.783   4.527  1.00 34.37    -0.028 A 
ATOM     38  CD2 TRP A  63     -19.888   5.827   4.620  1.00 33.79    -0.002 A 
ATOM     39  CE3 TRP A  63     -19.754   4.576   5.226  1.00 32.99     0.014 A 
ATOM     40  CE2 TRP A  63     -18.787   6.359   3.913  1.00 35.84     0.042 A 
ATOM     41  CZ3 TRP A  63     -18.545   3.904   5.112  1.00 32.93     0.001 A 
ATOM     42  CH2 TRP A  63     -17.469   4.460   4.403  1.00 39.24     0.002 A 
ATOM     43  CZ2 TRP A  63     -17.571   5.684   3.797  1.00 37.99     0.030 A 
ATOM     44  NE1 TRP A  63     -19.169   7.576   3.420  1.00 37.98    -0.365 N 
ATOM     45  H06 TRP A  63     -18.590   8.195   2.870  1.00 37.98     0.165 HD
ATOM     46  CD1 TRP A  63     -20.467   7.821   3.796  1.00 38.16     0.096 A 
ENDBRANCH  36  37
ENDBRANCH  35  36
END_RES TRP A  63
BEGIN_RES LEU A  66
REMARK  2 active torsions:
REMARK  status: ('A' for Active; 'I' for Inactive)
REMARK   16  A    between atoms: CA   and  CB  
REMARK   17  A    between atoms: CB   and  CG  
ROOT
ATOM     47  CA  LEU A  66     -20.004   6.489  11.120  1.00 10.90     0.177 C 
ENDROOT
BRANCH  47  48
ATOM     48  CB  LEU A  66     -19.626   5.453  10.069  1.00 13.57     0.038 C 
BRANCH  48  49
ATOM     49  CG  LEU A  66     -19.195   4.075  10.569  1.00  8.73    -0.020 C 
ATOM     50  CD1 LEU A  66     -19.303   3.996  12.069  1.00 14.23     0.009 C 
ATOM     51  CD2 LEU A  66     -20.083   3.037   9.932  1.00  1.92     0.009 C 
ENDBRANCH  48  49
ENDBRANCH  47  48
END_RES LEU A  66
BEGIN_RES PHE A  70
REMARK  2 active torsions:
REMARK  status: ('A' for Active; 'I' for Inactive)
REMARK   18  A    between atoms: CA   and  CB  
REMARK   19  A    between atoms: CB   and  CG  
ROOT
ATOM     52  CA  PHE A  70     -14.974   9.434  13.165  1.00  8.78     0.180 C 
ENDROOT
BRANCH  52  53
ATOM     53  CB  PHE A  70     -14.707   9.132  11.681  1.00  6.33     0.073 C 
BRANCH  53  54
ATOM     54  CG  PHE A  70     -13.934   7.860  11.459  1.00  3.42    -0.056 A 
ATOM     55  CD1 PHE A  70     -13.696   7.382  10.179  1.00 13.88     0.007 A 
ATOM     56  CE1 PHE A  70     -13.013   6.169   9.980  1.00 12.71     0.001 A 
ATOM     57  CZ  PHE A  70     -12.565   5.429  11.075  1.00  4.21     0.000 A 
ATOM     58  CE2 PHE A  70     -12.795   5.896  12.355  1.00  2.83     0.001 A 
ATOM     59  CD2 PHE A  70     -13.477   7.110  12.543  1.00  1.00     0.007 A 
ENDBRANCH  53  54
ENDBRANCH  52  53
END_RES PHE A  70
BEGIN_RES TYR A  73
REMARK  3 active torsions:
REMARK  status: ('A' for Active; 'I' for Inactive)
REMARK   20  A    between atoms: CA   and  CB  
REMARK   21  A    between atoms: CB   and  CG  
REMARK   22  A    between atoms: CZ   and  OH  
ROOT
ATOM     60  CA  TYR A  73     -13.212  10.166  17.260  1.00 12.17     0.180 C 
ENDROOT
BRANCH  60  61
ATOM     61  CB  TYR A  73     -13.301   8.846  16.517  1.00 12.84     0.073 C 
BRANCH  61  62
ATOM     62  CG  TYR A  73     -13.284   7.664  17.422  1.00 15.89    -0.056 A 
ATOM     63  CD1 TYR A  73     -13.426   6.387  16.927  1.00 16.00     0.010 A 
ATOM     64  CE1 TYR A  73     -13.441   5.281  17.777  1.00 13.55     0.037 A 
ATOM     65  CZ  TYR A  73     -13.313   5.471  19.138  1.00 18.13     0.065 A 
ATOM     66  CE2 TYR A  73     -13.168   6.736  19.658  1.00 15.89     0.037 A 
ATOM     67  CD2 TYR A  73     -13.154   7.827  18.797  1.00 21.86     0.010 A 
BRANCH  65  68
ATOM     68  OH  TYR A  73     -13.319   4.396  19.992  1.00 12.12    -0.361 OA
ATOM     69  H08 TYR A  73     -12.534   3.864  19.844  1.00 12.12     0.217 HD
ENDBRANCH  65  68
ENDBRANCH  61  62
ENDBRANCH  60  61
END_RES TYR A  73
BEGIN_RES PHE A  77
REMARK  2 active torsions:
REMARK  status: ('A' for Active; 'I' for Inactive)
REMARK   23  A    between atoms: CA   and  CB  
REMARK   24  A    between atoms: CB   and  CG  
ROOT
ATOM     70  CA  PHE A  77      -8.400  10.581  20.110  1.00 17.17     0.180 C 
ENDROOT
BRANCH  70  71
ATOM     71  CB  PHE A  77      -8.228   9.750  18.851  1.00 10.44     0.073 C 
BRANCH  71  72
ATOM     72  CG  PHE A  77      -8.722   8.344  18.984  1.00  6.07    -0.056 A 
ATOM     73  CD2 PHE A  77      -8.603   7.671  20.179  1.00  9.61     0.007 A 
ATOM     74  CE2 PHE A  77      -9.061   6.365  20.313  1.00  1.00     0.001 A 
ATOM     75  CZ  PHE A  77      -9.650   5.726  19.235  1.00  1.92     0.000 A 
ATOM     76  CE1 PHE A  77      -9.778   6.386  18.034  1.00  9.25     0.001 A 
ATOM     77  CD1 PHE A  77      -9.313   7.695  17.913  1.00  9.63     0.007 A 
ENDBRANCH  71  72
ENDBRANCH  70  71
END_RES PHE A  77
BEGIN_RES LEU A  96
REMARK  2 active torsions:
REMARK  status: ('A' for Active; 'I' for Inactive)
REMARK   25  A    between atoms: CA   and  CB  
REMARK   26  A    between atoms: CB   and  CG  
ROOT
ATOM     78  CA  LEU A  96       0.717   6.481  17.359  1.00 16.08     0.177 C 
ENDROOT
BRANCH  78  79
ATOM     79  CB  LEU A  96      -0.370   7.101  18.230  1.00 18.83     0.038 C 
BRANCH  79  80
ATOM     80  CG  LEU A  96      -0.886   6.192  19.345  1.00 19.03    -0.020 C 
ATOM     81  CD1 LEU A  96       0.294   5.648  20.116  1.00 28.17     0.009 C 
ATOM     82  CD2 LEU A  96      -1.762   6.971  20.298  1.00 22.01     0.009 C 
ENDBRANCH  79  80
ENDBRANCH  78  79
END_RES LEU A  96
BEGIN_RES VAL A  98
REMARK  1 active torsions:
REMARK  status: ('A' for Active; 'I' for Inactive)
REMARK   27  A    between atoms: CA   and  CB  
ROOT
ATOM     83  CA  VAL A  98      -3.928   2.082  14.897  1.00 19.83     0.180 C 
ENDROOT
BRANCH  83  84
ATOM     84  CB  VAL A  98      -5.203   2.807  15.281  1.00 17.87     0.009 C 
ATOM     85  CG2 VAL A  98      -5.314   2.899  16.781  1.00 29.90     0.012 C 
ATOM     86  CG1 VAL A  98      -6.395   2.078  14.698  1.00 14.79     0.012 C 
ENDBRANCH  83  84
END_RES VAL A  98
BEGIN_RES ASN A 112
REMARK  2 active torsions:
REMARK  status: ('A' for Active; 'I' for Inactive)
REMARK   28  A    between atoms: CA   and  CB  
REMARK   29  A    between atoms: CB   and  CG  
REMARK       I    between atoms: CG   and  ND2 
ROOT
ATOM     87  CA  ASN A 112     -11.790  -8.793  14.069  1.00 37.70     0.185 C 
ENDROOT
BRANCH  87  88
ATOM     88  CB  ASN A 112     -12.992  -7.945  14.465  1.00 26.24     0.137 C 
BRANCH  88  89
ATOM     89  CG  ASN A 112     -13.821  -8.569  15.565  1.00 21.77     0.217 C 
ATOM     90  ND2 ASN A 112     -14.966  -9.139  15.187  1.00  9.31    -0.370 N 
ATOM     91  H04 ASN A 112     -15.565  -9.571  15.875  1.00  9.31     0.159 HD
ATOM     92  H05 ASN A 112     -15.233  -9.137  14.213  1.00  9.31     0.159 HD
ATOM     93  OD1 ASN A 112     -13.444  -8.538  16.742  1.00 21.61    -0.274 OA
ENDBRANCH  88  89
ENDBRANCH  87  88
END_RES ASN A 112
BEGIN_RES PHE A 114
REMARK  2 active torsions:
REMARK  status: ('A' for Active; 'I' for Inactive)
REMARK   30  A    between atoms: CA   and  CB  
REMARK   31  A    between atoms: CB   and  CG  
ROOT
ATOM     94  CA  PHE A 114      -7.754  -3.619  17.012  1.00 26.06     0.180 C 
ENDROOT
BRANCH  94  95
ATOM     95  CB  PHE A 114      -8.890  -3.080  17.867  1.00 19.95     0.073 C 
BRANCH  95  96
ATOM     96  CG  PHE A 114      -9.176  -1.633  17.628  1.00 17.65    -0.056 A 
ATOM     97  CD1 PHE A 114      -8.139  -0.710  17.518  1.00 13.01     0.007 A 
ATOM     98  CE1 PHE A 114      -8.404   0.639  17.326  1.00  6.74     0.001 A 
ATOM     99  CZ  PHE A 114      -9.719   1.086  17.237  1.00  6.27     0.000 A 
ATOM    100  CE2 PHE A 114     -10.759   0.176  17.344  1.00 17.36     0.001 A 
ATOM    101  CD2 PHE A 114     -10.485  -1.181  17.539  1.00 18.39     0.007 A 
ENDBRANCH  95  96
ENDBRANCH  94  95
END_RES PHE A 114
BEGIN_RES VAL A 116
REMARK  1 active torsions:
REMARK  status: ('A' for Active; 'I' for Inactive)
REMARK   32  A    between atoms: CA   and  CB  
ROOT
ATOM    102  CA  VAL A 116      -2.467   0.283  18.565  1.00 13.48     0.180 C 
ENDROOT
BRANCH 102 103
ATOM    103  CB  VAL A 116      -3.101   1.238  19.599  1.00 20.86     0.009 C 
ATOM    104  CG1 VAL A 116      -2.781   2.687  19.221  1.00 25.01     0.012 C 
ATOM    105  CG2 VAL A 116      -4.590   1.006  19.704  1.00 25.34     0.012 C 
ENDBRANCH 102 103
END_RES VAL A 116
BEGIN_RES ILE A 123
REMARK  2 active torsions:
REMARK  status: ('A' for Active; 'I' for Inactive)
REMARK   33  A    between atoms: CA   and  CB  
REMARK   34  A    between atoms: CB   and  CG1 
ROOT
ATOM    106  CA  ILE A 123       1.557  -1.626  23.222  1.00 15.07     0.180 C 
ENDROOT
BRANCH 106 107
ATOM    107  CB  ILE A 123       1.697  -0.112  23.461  1.00 14.41     0.013 C 
ATOM    108  CG2 ILE A 123       3.099   0.207  23.951  1.00 18.35     0.012 C 
BRANCH 107 109
ATOM    109  CG1 ILE A 123       1.399   0.657  22.176  1.00 15.23     0.002 C 
ATOM    110  CD1 ILE A 123       0.205   1.574  22.282  1.00 14.67     0.005 C 
ENDBRANCH 107 109
ENDBRANCH 106 107
END_RES ILE A 123
BEGIN_RES LEU A 124
REMARK  2 active torsions:
REMARK  status: ('A' for Active; 'I' for Inactive)
REMARK   35  A    between atoms: CA   and  CB  
REMARK   36  A    between atoms: CB   and  CG  
ROOT
ATOM    111  CA  LEU A 124      -2.057  -2.686  23.524  1.00 11.86     0.177 C 
ENDROOT
BRANCH 111 112
ATOM    112  CB  LEU A 124      -2.698  -1.652  24.429  1.00 14.60     0.038 C 
BRANCH 112 113
ATOM    113  CG  LEU A 124      -2.626  -0.252  23.838  1.00 16.19    -0.020 C 
ATOM    114  CD1 LEU A 124      -4.035   0.174  23.384  1.00 22.07     0.009 C 
ATOM    115  CD2 LEU A 124      -2.054   0.697  24.862  1.00  9.12     0.009 C 
ENDBRANCH 112 113
ENDBRANCH 111 112
END_RES LEU A 124
BEGIN_RES PHE A 126
REMARK  2 active torsions:
REMARK  status: ('A' for Active; 'I' for Inactive)
REMARK   37  A    between atoms: CA   and  CB  
REMARK   38  A    between atoms: CB   and  CG  
ROOT
ATOM    116  CA  PHE A 126      -8.784  -4.792  22.233  1.00 23.15     0.180 C 
ENDROOT
BRANCH 116 117
ATOM    117  CB  PHE A 126      -9.823  -4.011  21.461  1.00 20.65     0.073 C 
BRANCH 117 118
ATOM    118  CG  PHE A 126     -10.951  -3.545  22.296  1.00 23.65    -0.056 A 
ATOM    119  CD2 PHE A 126     -10.769  -2.540  23.230  1.00 36.63     0.007 A 
ATOM    120  CE2 PHE A 126     -11.839  -2.098  24.020  1.00 36.27     0.001 A 
ATOM    121  CZ  PHE A 126     -13.093  -2.670  23.869  1.00 18.06     0.000 A 
ATOM    122  CE1 PHE A 126     -13.279  -3.672  22.936  1.00  5.50     0.001 A 
ATOM    123  CD1 PHE A 126     -12.209  -4.103  22.152  1.00 15.29     0.007 A 
ENDBRANCH 117 118
ENDBRANCH 116 117
END_RES PHE A 126
BEGIN_RES TRP A 131
REMARK  2 active torsions:
REMARK  status: ('A' for Active; 'I' for Inactive)
REMARK   39  A    between atoms: CA   and  CB  
REMARK   40  A    between atoms: CB   and  CG  
ROOT
ATOM    124  CA  TRP A 131      -8.096  -3.335  26.542  1.00 14.52     0.181 C 
ENDROOT
BRANCH 124 125
ATOM    125  CB  TRP A 131      -7.651  -1.877  26.607  1.00 13.06     0.075 C 
BRANCH 125 126
ATOM    126  CG  TRP A 131      -8.049  -1.052  25.403  1.00 16.97    -0.028 A 
ATOM    127  CD2 TRP A 131      -9.122  -0.109  25.334  1.00 11.34    -0.002 A 
ATOM    128  CE2 TRP A 131      -9.128   0.430  24.033  1.00  5.87     0.042 A 
ATOM    129  CE3 TRP A 131     -10.082   0.331  26.252  1.00  3.80     0.014 A 
ATOM    130  CZ2 TRP A 131     -10.056   1.390  23.626  1.00  1.35     0.030 A 
ATOM    131  NE1 TRP A 131      -8.106  -0.158  23.339  1.00 13.90    -0.365 N 
ATOM    132  CH2 TRP A 131     -10.986   1.804  24.547  1.00  1.00     0.002 A 
ATOM    133  CZ3 TRP A 131     -11.005   1.280  25.854  1.00  1.00     0.001 A 
ATOM    134  CD1 TRP A 131      -7.461  -1.047  24.168  1.00 17.22     0.096 A 
ATOM    135  H07 TRP A 131      -7.864   0.029  22.377  1.00 13.90     0.165 HD
ENDBRANCH 125 126
ENDBRANCH 124 125
END_RES TRP A 131
BEGIN_RES LEU A 148
REMARK  2 active torsions:
REMARK  status: ('A' for Active; 'I' for Inactive)
REMARK   41  A    between atoms: CA   and  CB  
REMARK   42  A    between atoms: CB   and  CG  
ROOT
ATOM    136  CA  LEU A 148      -9.018   3.259  29.295  1.00 16.99     0.177 C 
ENDROOT
BRANCH 136 137
ATOM    137  CB  LEU A 148      -8.166   2.574  28.236  1.00  6.39     0.038 C 
BRANCH 137 138
ATOM    138  CG  LEU A 148      -7.282   3.377  27.304  1.00  1.00    -0.020 C 
ATOM    139  CD2 LEU A 148      -7.934   3.517  25.959  1.00  1.00     0.009 C 
ATOM    140  CD1 LEU A 148      -5.949   2.661  27.179  1.00  2.71     0.009 C 
ENDBRANCH 137 138
ENDBRANCH 136 137
END_RES LEU A 148
BEGIN_RES THR A 154
REMARK  2 active torsions:
REMARK  status: ('A' for Active; 'I' for Inactive)
REMARK   43  A    between atoms: CA   and  CB  
REMARK   44  A    between atoms: CB   and  OG1 
ROOT
ATOM    141  CA  THR A 154     -15.990   3.959  24.426  1.00 20.45     0.205 C 
ENDROOT
BRANCH 141 142
ATOM    142  CB  THR A 154     -14.777   4.829  24.694  1.00 16.79     0.146 C 
ATOM    143  CG2 THR A 154     -13.679   4.518  23.695  1.00 20.24     0.042 C 
BRANCH 142 144
ATOM    144  OG1 THR A 154     -15.153   6.205  24.556  1.00 18.84    -0.393 OA
ATOM    145  H06 THR A 154     -16.029   6.337  24.925  1.00 18.84     0.210 HD
ENDBRANCH 142 144
ENDBRANCH 141 142
END_RES THR A 154
BEGIN_RES VAL A 158
REMARK  1 active torsions:
REMARK  status: ('A' for Active; 'I' for Inactive)
REMARK   45  A    between atoms: CA   and  CB  
ROOT
ATOM    146  CA  VAL A 158     -15.487  -0.189  19.892  1.00 15.49     0.180 C 
ENDROOT
BRANCH 146 147
ATOM    147  CB  VAL A 158     -14.291  -0.273  20.822  1.00  6.52     0.009 C 
ATOM    148  CG1 VAL A 158     -13.246  -1.216  20.272  1.00  1.00     0.012 C 
ATOM    149  CG2 VAL A 158     -13.723   1.101  20.999  1.00  5.99     0.012 C 
ENDBRANCH 146 147
END_RES VAL A 158
BEGIN_RES LEU A 161
REMARK  2 active torsions:
REMARK  status: ('A' for Active; 'I' for Inactive)
REMARK   46  A    between atoms: CA   and  CB  
REMARK   47  A    between atoms: CB   and  CG  
ROOT
ATOM    150  CA  LEU A 161     -18.031  -1.858  15.935  1.00 13.31     0.177 C 
ENDROOT
BRANCH 150 151
ATOM    151  CB  LEU A 161     -17.046  -0.706  16.001  1.00 14.13     0.038 C 
BRANCH 151 152
ATOM    152  CG  LEU A 161     -17.538   0.634  15.468  1.00 19.39    -0.020 C 
ATOM    153  CD2 LEU A 161     -17.462   0.656  13.961  1.00 27.75     0.009 C 
ATOM    154  CD1 LEU A 161     -16.683   1.730  16.044  1.00 18.59     0.009 C 
ENDBRANCH 151 152
ENDBRANCH 150 151
END_RES LEU A 161
BEGIN_RES GLN A 168
REMARK  3 active torsions:
REMARK  status: ('A' for Active; 'I' for Inactive)
REMARK   48  A    between atoms: CA   and  CB  
REMARK   49  A    between atoms: CB   and  CG  
REMARK   50  A    between atoms: CG   and  CD  
REMARK       I    between atoms: CD   and  NE2 
ROOT
ATOM    155  CA  GLN A 168     -22.035  -6.020   8.155  1.00 30.94     0.177 C 
ENDROOT
BRANCH 155 156
ATOM    156  CB  GLN A 168     -23.054  -5.218   8.946  1.00 41.76     0.044 C 
BRANCH 156 157
ATOM    157  CG  GLN A 168     -24.465  -5.731   8.846  1.00 61.20     0.105 C 
BRANCH 157 158
ATOM    158  CD  GLN A 168     -25.060  -5.487   7.473  1.00 75.49     0.215 C 
ATOM    159  NE2 GLN A 168     -25.087  -4.220   7.058  1.00 85.00    -0.370 N 
ATOM    160  H06 GLN A 168     -25.473  -3.993   6.153  1.00 85.00     0.159 HD
ATOM    161  H07 GLN A 168     -24.721  -3.487   7.650  1.00 85.00     0.159 HD
ATOM    162  OE1 GLN A 168     -25.497  -6.425   6.790  1.00 73.64    -0.274 OA
ENDBRANCH 157 158
ENDBRANCH 156 157
ENDBRANCH 155 156
END_RES GLN A 168
ENDMDL
MODEL 5
REMARK VINA RESULT:      -6.1      2.927      6.686
REMARK  Name = human_CD1d_SDS_pred.rank_0
REMARK  12 active torsions:
REMARK  status: ('A' for Active; 'I' for Inactive)
REMARK    1  A    between atoms: O_2  and  S_3
REMARK    2  A    between atoms: O_2  and  C_17
REMARK    3  A    between atoms: C_4  and  C_6
REMARK    4  A    between atoms: C_6  and  C_8
REMARK    5  A    between atoms: C_8  and  C_10
REMARK    6  A    between atoms: C_10  and  C_11
REMARK    7  A    between atoms: C_11  and  C_12
REMARK    8  A    between atoms: C_12  and  C_13
REMARK    9  A    between atoms: C_13  and  C_14
REMARK   10  A    between atoms: C_14  and  C_15
REMARK   11  A    between atoms: C_15  and  C_16
REMARK   12  A    between atoms: C_16  and  C_17
REMARK                            x       y       z     vdW  Elec       q    Type
REMARK                         _______ _______ _______ _____ _____    ______ ____
ROOT
ATOM      1  C   UNL     1      -5.104   3.629  22.296  0.00  0.00    +0.000 C 
ENDROOT
BRANCH   1   2
ATOM      2  C   UNL     1      -6.007   4.089  21.181  0.00  0.00    +0.000 C 
BRANCH   2   3
ATOM      3  C   UNL     1      -5.420   5.306  20.421  0.00  0.00    +0.000 C 
BRANCH   3   4
ATOM      4  C   UNL     1      -5.709   5.226  18.920  0.00  0.00    +0.000 C 
BRANCH   4   5
ATOM      5  C   UNL     1      -5.063   6.385  18.170  0.00  0.00    +0.000 C 
BRANCH   5   6
ATOM      6  C   UNL     1      -4.983   7.651  19.014  0.00  0.00    +0.000 C 
BRANCH   6   7
ATOM      7  C   UNL     1      -4.919   8.877  18.139  0.00  0.00    +0.000 C 
BRANCH   7   9
ATOM      8  C   UNL     1      -5.964   9.881  16.082  0.00  0.00    +0.000 C 
ATOM      9  C   UNL     1      -5.491   8.616  16.756  0.00  0.00    +0.000 C 
ENDBRANCH   7   9
ENDBRANCH   6   7
ENDBRANCH   5   6
ENDBRANCH   4   5
ENDBRANCH   3   4
ENDBRANCH   2   3
ENDBRANCH   1   2
BRANCH   1  10
ATOM     10  C   UNL     1      -3.933   4.583  22.522  0.00  0.00    +0.000 C 
BRANCH  10  11
ATOM     11  C   UNL     1      -2.601   3.821  22.675  0.00  0.00    +0.000 C 
BRANCH  11  12
ATOM     12  C   UNL     1      -1.855   4.282  23.910  0.00  0.00    +0.000 C 
BRANCH  12  13
ATOM     13  O   UNL     1      -0.678   4.968  23.558  0.00  0.00    +0.000 OA
BRANCH  13  14
ATOM     14  S   UNL     1      -0.343   6.245  24.427  0.00  0.00    +0.000 S 
ATOM     15  O   UNL     1      -0.803   7.425  23.710  0.00  0.00    +0.000 OA
ATOM     16  O   UNL     1      -0.978   6.155  25.696  0.00  0.00    +0.000 OA
ATOM     17  O   UNL     1       1.151   6.274  24.586  0.00  0.00    +0.000 OA
ENDBRANCH  13  14
ENDBRANCH  12  13
ENDBRANCH  11  12
ENDBRANCH  10  11
ENDBRANCH   1  10
TORSDOF 12
BEGIN_RES LEU A  10
REMARK  2 active torsions:
REMARK  status: ('A' for Active; 'I' for Inactive)
REMARK    1  A    between atoms: CA   and  CB  
REMARK    2  A    between atoms: CB   and  CG  
ROOT
ATOM      1  CA  LEU A  10     -10.775  -4.871   5.898  1.00 25.14     0.177 C 
ENDROOT
BRANCH   1   2
ATOM      2  CB  LEU A  10     -12.191  -4.387   6.226  1.00 17.87     0.038 C 
BRANCH   2   3
ATOM      3  CG  LEU A  10     -12.393  -2.877   6.083  1.00 24.95    -0.020 C 
ATOM      4  CD2 LEU A  10     -13.681  -2.495   6.729  1.00 26.38     0.009 C 
ATOM      5  CD1 LEU A  10     -12.384  -2.464   4.621  1.00 28.12     0.009 C 
ENDBRANCH   2   3
ENDBRANCH   1   2
END_RES LEU A  10
BEGIN_RES CYS A  12
REMARK  2 active torsions:
REMARK  status: ('A' for Active; 'I' for Inactive)
REMARK    3  A    between atoms: CA   and  CB  
REMARK    4  A    between atoms: CB   and  SG  
ROOT
ATOM      6  CA  CYS A  12      -8.555   0.470   8.750  1.00 23.16     0.185 C 
ENDROOT
BRANCH   6   7
ATOM      7  CB  CYS A  12      -9.828   0.763   9.555  1.00 20.43     0.105 C 
BRANCH   7   8
ATOM      8  SG  CYS A  12     -10.942   2.022   8.860  1.00 24.64    -0.180 SA
ATOM      9  H04 CYS A  12     -10.219   3.037   8.368  1.00 24.64     0.101 HD
ENDBRANCH   7   8
ENDBRANCH   6   7
END_RES CYS A  12
BEGIN_RES GLN A  14
REMARK  3 active torsions:
REMARK  status: ('A' for Active; 'I' for Inactive)
REMARK    5  A    between atoms: CA   and  CB  
REMARK    6  A    between atoms: CB   and  CG  
REMARK    7  A    between atoms: CG   and  CD  
REMARK       I    between atoms: CD   and  NE2 
ROOT
ATOM     10  CA  GLN A  14      -4.645   5.402  11.377  1.00 10.43     0.177 C 
ENDROOT
BRANCH  10  11
ATOM     11  CB  GLN A  14      -5.541   5.549  12.608  1.00 14.45     0.044 C 
BRANCH  11  12
ATOM     12  CG  GLN A  14      -6.550   6.670  12.507  1.00 13.74     0.105 C 
BRANCH  12  13
ATOM     13  CD  GLN A  14      -5.906   8.034  12.578  1.00 16.29     0.215 C 
ATOM     14  NE2 GLN A  14      -6.490   8.994  11.895  1.00  8.57    -0.370 N 
ATOM     15  H06 GLN A  14      -6.106   9.928  11.906  1.00  8.57     0.159 HD
ATOM     16  H07 GLN A  14      -7.324   8.798  11.359  1.00  8.57     0.159 HD
ATOM     17  OE1 GLN A  14      -4.899   8.221  13.242  1.00 23.55    -0.274 OA
ENDBRANCH  12  13
ENDBRANCH  11  12
ENDBRANCH  10  11
END_RES GLN A  14
BEGIN_RES SER A  16
REMARK  2 active torsions:
REMARK  status: ('A' for Active; 'I' for Inactive)
REMARK    8  A    between atoms: CA   and  CB  
REMARK    9  A    between atoms: CB   and  OG  
ROOT
ATOM     18  CA  SER A  16      -1.305  10.019  14.282  1.00  2.34     0.200 C 
ENDROOT
BRANCH  18  19
ATOM     19  CB  SER A  16      -2.242   9.935  15.479  1.00  3.12     0.199 C 
BRANCH  19  20
ATOM     20  OG  SER A  16      -2.052   8.712  16.168  1.00  1.00    -0.398 OA
ATOM     21  H04 SER A  16      -1.819   8.024  15.541  1.00  1.00     0.209 HD
ENDBRANCH  19  20
ENDBRANCH  18  19
END_RES SER A  16
BEGIN_RES LEU A  32
REMARK  2 active torsions:
REMARK  status: ('A' for Active; 'I' for Inactive)
REMARK   10  A    between atoms: CA   and  CB  
REMARK   11  A    between atoms: CB   and  CG  
ROOT
ATOM     22  CA  LEU A  32     -10.272  -4.106   1.587  1.00 16.16     0.177 C 
ENDROOT
BRANCH  22  23
ATOM     23  CB  LEU A  32     -11.613  -3.858   0.880  1.00 12.35     0.038 C 
BRANCH  23  24
ATOM     24  CG  LEU A  32     -12.575  -5.053   1.038  1.00  9.77    -0.020 C 
ATOM     25  CD1 LEU A  32     -13.009  -5.191   2.478  1.00  4.35     0.009 C 
ATOM     26  CD2 LEU A  32     -13.785  -4.888   0.156  1.00 10.60     0.009 C 
ENDBRANCH  23  24
ENDBRANCH  22  23
END_RES LEU A  32
BEGIN_RES HIS A  38
REMARK  2 active torsions:
REMARK  status: ('A' for Active; 'I' for Inactive)
REMARK   12  A    between atoms: CA   and  CB  
REMARK   13  A    between atoms: CB   and  CG  
ROOT
ATOM     27  CA  HIS A  38     -10.959   4.941   1.621  1.00 16.94     0.182 C 
ENDROOT
BRANCH  27  28
ATOM     28  CB  HIS A  38     -11.810   4.840   2.881  1.00 15.47     0.095 C 
BRANCH  28  29
ATOM     29  CG  HIS A  38     -12.992   3.937   2.740  1.00 18.62     0.053 A 
ATOM     30  CD2 HIS A  38     -14.152   4.091   2.057  1.00 15.06     0.116 A 
ATOM     31  NE2 HIS A  38     -14.882   2.944   2.240  1.00 18.12    -0.359 N 
ATOM     32  CE1 HIS A  38     -14.198   2.117   3.007  1.00 14.78     0.207 A 
ATOM     33  H06 HIS A  38     -15.796   2.763   1.850  1.00 18.12     0.166 HD
ATOM     34  ND1 HIS A  38     -13.055   2.691   3.324  1.00 16.58    -0.247 NA
ENDBRANCH  28  29
ENDBRANCH  27  28
END_RES HIS A  38
BEGIN_RES TRP A  63
REMARK  2 active torsions:
REMARK  status: ('A' for Active; 'I' for Inactive)
REMARK   14  A    between atoms: CA   and  CB  
REMARK   15  A    between atoms: CB   and  CG  
ROOT
ATOM     35  CA  TRP A  63     -22.437   6.257   6.543  1.00 27.04     0.181 C 
ENDROOT
BRANCH  35  36
ATOM     36  CB  TRP A  63     -22.360   6.642   5.068  1.00 31.37     0.075 C 
BRANCH  36  37
ATOM     37  CG  TRP A  63     -20.953   6.804   4.533  1.00 34.37    -0.028 A 
ATOM     38  CD2 TRP A  63     -19.882   5.852   4.604  1.00 33.79    -0.002 A 
ATOM     39  CE3 TRP A  63     -19.742   4.588   5.181  1.00 32.99     0.014 A 
ATOM     40  CE2 TRP A  63     -18.784   6.407   3.912  1.00 35.84     0.042 A 
ATOM     41  CZ3 TRP A  63     -18.529   3.926   5.053  1.00 32.93     0.001 A 
ATOM     42  CH2 TRP A  63     -17.455   4.505   4.359  1.00 39.24     0.002 A 
ATOM     43  CZ2 TRP A  63     -17.564   5.742   3.782  1.00 37.99     0.030 A 
ATOM     44  NE1 TRP A  63     -19.172   7.633   3.447  1.00 37.98    -0.365 N 
ATOM     45  H06 TRP A  63     -18.596   8.268   2.912  1.00 37.98     0.165 HD
ATOM     46  CD1 TRP A  63     -20.473   7.862   3.827  1.00 38.16     0.096 A 
ENDBRANCH  36  37
ENDBRANCH  35  36
END_RES TRP A  63
BEGIN_RES LEU A  66
REMARK  2 active torsions:
REMARK  status: ('A' for Active; 'I' for Inactive)
REMARK   16  A    between atoms: CA   and  CB  
REMARK   17  A    between atoms: CB   and  CG  
ROOT
ATOM     47  CA  LEU A  66     -20.004   6.489  11.120  1.00 10.90     0.177 C 
ENDROOT
BRANCH  47  48
ATOM     48  CB  LEU A  66     -19.626   5.453  10.069  1.00 13.57     0.038 C 
BRANCH  48  49
ATOM     49  CG  LEU A  66     -19.353   4.030  10.556  1.00  8.73    -0.020 C 
ATOM     50  CD1 LEU A  66     -19.205   4.001  12.055  1.00 14.23     0.009 C 
ATOM     51  CD2 LEU A  66     -20.501   3.152  10.132  1.00  1.92     0.009 C 
ENDBRANCH  48  49
ENDBRANCH  47  48
END_RES LEU A  66
BEGIN_RES PHE A  70
REMARK  2 active torsions:
REMARK  status: ('A' for Active; 'I' for Inactive)
REMARK   18  A    between atoms: CA   and  CB  
REMARK   19  A    between atoms: CB   and  CG  
ROOT
ATOM     52  CA  PHE A  70     -14.974   9.434  13.165  1.00  8.78     0.180 C 
ENDROOT
BRANCH  52  53
ATOM     53  CB  PHE A  70     -14.707   9.132  11.681  1.00  6.33     0.073 C 
BRANCH  53  54
ATOM     54  CG  PHE A  70     -13.970   7.840  11.457  1.00  3.42    -0.056 A 
ATOM     55  CD1 PHE A  70     -13.494   7.093  12.524  1.00 13.88     0.007 A 
ATOM     56  CE1 PHE A  70     -12.765   5.911  12.305  1.00 12.71     0.001 A 
ATOM     57  CZ  PHE A  70     -12.512   5.472  11.005  1.00  4.21     0.000 A 
ATOM     58  CE2 PHE A  70     -12.984   6.206   9.933  1.00  2.83     0.001 A 
ATOM     59  CD2 PHE A  70     -13.711   7.387  10.162  1.00  1.00     0.007 A 
ENDBRANCH  53  54
ENDBRANCH  52  53
END_RES PHE A  70
BEGIN_RES TYR A  73
REMARK  3 active torsions:
REMARK  status: ('A' for Active; 'I' for Inactive)
REMARK   20  A    between atoms: CA   and  CB  
REMARK   21  A    between atoms: CB   and  CG  
REMARK   22  A    between atoms: CZ   and  OH  
ROOT
ATOM     60  CA  TYR A  73     -13.212  10.166  17.260  1.00 12.17     0.180 C 
ENDROOT
BRANCH  60  61
ATOM     61  CB  TYR A  73     -13.301   8.846  16.517  1.00 12.84     0.073 C 
BRANCH  61  62
ATOM     62  CG  TYR A  73     -13.155   7.663  17.409  1.00 15.89    -0.056 A 
ATOM     63  CD1 TYR A  73     -13.318   6.384  16.926  1.00 16.00     0.010 A 
ATOM     64  CE1 TYR A  73     -13.212   5.276  17.766  1.00 13.55     0.037 A 
ATOM     65  CZ  TYR A  73     -12.940   5.466  19.107  1.00 18.13     0.065 A 
ATOM     66  CE2 TYR A  73     -12.772   6.733  19.614  1.00 15.89     0.037 A 
ATOM     67  CD2 TYR A  73     -12.880   7.826  18.762  1.00 21.86     0.010 A 
BRANCH  65  68
ATOM     68  OH  TYR A  73     -12.826   4.389  19.951  1.00 12.12    -0.361 OA
ATOM     69  H08 TYR A  73     -13.618   3.849  19.890  1.00 12.12     0.217 HD
ENDBRANCH  65  68
ENDBRANCH  61  62
ENDBRANCH  60  61
END_RES TYR A  73
BEGIN_RES PHE A  77
REMARK  2 active torsions:
REMARK  status: ('A' for Active; 'I' for Inactive)
REMARK   23  A    between atoms: CA   and  CB  
REMARK   24  A    between atoms: CB   and  CG  
ROOT
ATOM     70  CA  PHE A  77      -8.400  10.581  20.110  1.00 17.17     0.180 C 
ENDROOT
BRANCH  70  71
ATOM     71  CB  PHE A  77      -8.228   9.750  18.851  1.00 10.44     0.073 C 
BRANCH  71  72
ATOM     72  CG  PHE A  77      -8.603   8.311  19.022  1.00  6.07    -0.056 A 
ATOM     73  CD2 PHE A  77      -8.593   7.730  20.269  1.00  9.61     0.007 A 
ATOM     74  CE2 PHE A  77      -8.941   6.394  20.438  1.00  1.00     0.001 A 
ATOM     75  CZ  PHE A  77      -9.308   5.632  19.342  1.00  1.92     0.000 A 
ATOM     76  CE1 PHE A  77      -9.325   6.199  18.088  1.00  9.25     0.001 A 
ATOM     77  CD1 PHE A  77      -8.971   7.539  17.933  1.00  9.63     0.007 A 
ENDBRANCH  71  72
ENDBRANCH  70  71
END_RES PHE A  77
BEGIN_RES LEU A  96
REMARK  2 active torsions:
REMARK  status: ('A' for Active; 'I' for Inactive)
REMARK   25  A    between atoms: CA   and  CB  
REMARK   26  A    between atoms: CB   and  CG  
ROOT
ATOM     78  CA  LEU A  96       0.717   6.481  17.359  1.00 16.08     0.177 C 
ENDROOT
BRANCH  78  79
ATOM     79  CB  LEU A  96      -0.370   7.101  18.230  1.00 18.83     0.038 C 
BRANCH  79  80
ATOM     80  CG  LEU A  96      -0.244   6.788  19.721  1.00 19.03    -0.020 C 
ATOM     81  CD1 LEU A  96       0.415   7.960  20.411  1.00 28.17     0.009 C 
ATOM     82  CD2 LEU A  96      -1.610   6.579  20.333  1.00 22.01     0.009 C 
ENDBRANCH  79  80
ENDBRANCH  78  79
END_RES LEU A  96
BEGIN_RES VAL A  98
REMARK  1 active torsions:
REMARK  status: ('A' for Active; 'I' for Inactive)
REMARK   27  A    between atoms: CA   and  CB  
ROOT
ATOM     83  CA  VAL A  98      -3.928   2.082  14.897  1.00 19.83     0.180 C 
ENDROOT
BRANCH  83  84
ATOM     84  CB  VAL A  98      -5.203   2.807  15.281  1.00 17.87     0.009 C 
ATOM     85  CG2 VAL A  98      -4.954   4.292  15.345  1.00 29.90     0.012 C 
ATOM     86  CG1 VAL A  98      -5.700   2.287  16.614  1.00 14.79     0.012 C 
ENDBRANCH  83  84
END_RES VAL A  98
BEGIN_RES ASN A 112
REMARK  2 active torsions:
REMARK  status: ('A' for Active; 'I' for Inactive)
REMARK   28  A    between atoms: CA   and  CB  
REMARK   29  A    between atoms: CB   and  CG  
REMARK       I    between atoms: CG   and  ND2 
ROOT
ATOM     87  CA  ASN A 112     -11.790  -8.793  14.069  1.00 37.70     0.185 C 
ENDROOT
BRANCH  87  88
ATOM     88  CB  ASN A 112     -12.992  -7.945  14.465  1.00 26.24     0.137 C 
BRANCH  88  89
ATOM     89  CG  ASN A 112     -13.808  -8.558  15.580  1.00 21.77     0.217 C 
ATOM     90  ND2 ASN A 112     -14.953  -9.138  15.221  1.00  9.31    -0.370 N 
ATOM     91  H04 ASN A 112     -15.545  -9.565  15.920  1.00  9.31     0.159 HD
ATOM     92  H05 ASN A 112     -15.229  -9.151  14.249  1.00  9.31     0.159 HD
ATOM     93  OD1 ASN A 112     -13.421  -8.510  16.754  1.00 21.61    -0.274 OA
ENDBRANCH  88  89
ENDBRANCH  87  88
END_RES ASN A 112
BEGIN_RES PHE A 114
REMARK  2 active torsions:
REMARK  status: ('A' for Active; 'I' for Inactive)
REMARK   30  A    between atoms: CA   and  CB  
REMARK   31  A    between atoms: CB   and  CG  
ROOT
ATOM     94  CA  PHE A 114      -7.754  -3.619  17.012  1.00 26.06     0.180 C 
ENDROOT
BRANCH  94  95
ATOM     95  CB  PHE A 114      -8.890  -3.080  17.867  1.00 19.95     0.073 C 
BRANCH  95  96
ATOM     96  CG  PHE A 114      -9.187  -1.637  17.616  1.00 17.65    -0.056 A 
ATOM     97  CD1 PHE A 114     -10.501  -1.188  17.514  1.00 13.01     0.007 A 
ATOM     98  CE1 PHE A 114     -10.778   0.148  17.251  1.00  6.74     0.001 A 
ATOM     99  CZ  PHE A 114      -9.737   1.057  17.089  1.00  6.27     0.000 A 
ATOM    100  CE2 PHE A 114      -8.425   0.621  17.189  1.00 17.36     0.001 A 
ATOM    101  CD2 PHE A 114      -8.154  -0.726  17.452  1.00 18.39     0.007 A 
ENDBRANCH  95  96
ENDBRANCH  94  95
END_RES PHE A 114
BEGIN_RES VAL A 116
REMARK  1 active torsions:
REMARK  status: ('A' for Active; 'I' for Inactive)
REMARK   32  A    between atoms: CA   and  CB  
ROOT
ATOM    102  CA  VAL A 116      -2.467   0.283  18.565  1.00 13.48     0.180 C 
ENDROOT
BRANCH 102 103
ATOM    103  CB  VAL A 116      -3.101   1.238  19.599  1.00 20.86     0.009 C 
ATOM    104  CG1 VAL A 116      -2.974   2.682  19.107  1.00 25.01     0.012 C 
ATOM    105  CG2 VAL A 116      -4.541   0.865  19.865  1.00 25.34     0.012 C 
ENDBRANCH 102 103
END_RES VAL A 116
BEGIN_RES ILE A 123
REMARK  2 active torsions:
REMARK  status: ('A' for Active; 'I' for Inactive)
REMARK   33  A    between atoms: CA   and  CB  
REMARK   34  A    between atoms: CB   and  CG1 
ROOT
ATOM    106  CA  ILE A 123       1.557  -1.626  23.222  1.00 15.07     0.180 C 
ENDROOT
BRANCH 106 107
ATOM    107  CB  ILE A 123       1.697  -0.112  23.461  1.00 14.41     0.013 C 
ATOM    108  CG2 ILE A 123       3.083   0.201  23.998  1.00 18.35     0.012 C 
BRANCH 107 109
ATOM    109  CG1 ILE A 123       1.448   0.655  22.164  1.00 15.23     0.002 C 
ATOM    110  CD1 ILE A 123       0.196   1.497  22.190  1.00 14.67     0.005 C 
ENDBRANCH 107 109
ENDBRANCH 106 107
END_RES ILE A 123
BEGIN_RES LEU A 124
REMARK  2 active torsions:
REMARK  status: ('A' for Active; 'I' for Inactive)
REMARK   35  A    between atoms: CA   and  CB  
REMARK   36  A    between atoms: CB   and  CG  
ROOT
ATOM    111  CA  LEU A 124      -2.057  -2.686  23.524  1.00 11.86     0.177 C 
ENDROOT
BRANCH 111 112
ATOM    112  CB  LEU A 124      -2.698  -1.652  24.429  1.00 14.60     0.038 C 
BRANCH 112 113
ATOM    113  CG  LEU A 124      -2.621  -0.251  23.841  1.00 16.19    -0.020 C 
ATOM    114  CD1 LEU A 124      -4.037   0.203  23.439  1.00 22.07     0.009 C 
ATOM    115  CD2 LEU A 124      -1.995   0.682  24.846  1.00  9.12     0.009 C 
ENDBRANCH 112 113
ENDBRANCH 111 112
END_RES LEU A 124
BEGIN_RES PHE A 126
REMARK  2 active torsions:
REMARK  status: ('A' for Active; 'I' for Inactive)
REMARK   37  A    between atoms: CA   and  CB  
REMARK   38  A    between atoms: CB   and  CG  
ROOT
ATOM    116  CA  PHE A 126      -8.784  -4.792  22.233  1.00 23.15     0.180 C 
ENDROOT
BRANCH 116 117
ATOM    117  CB  PHE A 126      -9.823  -4.011  21.461  1.00 20.65     0.073 C 
BRANCH 117 118
ATOM    118  CG  PHE A 126     -10.952  -3.546  22.296  1.00 23.65    -0.056 A 
ATOM    119  CD2 PHE A 126     -12.207  -4.115  22.165  1.00 36.63     0.007 A 
ATOM    120  CE2 PHE A 126     -13.275  -3.674  22.958  1.00 36.27     0.001 A 
ATOM    121  CZ  PHE A 126     -13.078  -2.659  23.883  1.00 18.06     0.000 A 
ATOM    122  CE1 PHE A 126     -11.827  -2.092  24.017  1.00  5.50     0.001 A 
ATOM    123  CD1 PHE A 126     -10.768  -2.538  23.226  1.00 15.29     0.007 A 
ENDBRANCH 117 118
ENDBRANCH 116 117
END_RES PHE A 126
BEGIN_RES TRP A 131
REMARK  2 active torsions:
REMARK  status: ('A' for Active; 'I' for Inactive)
REMARK   39  A    between atoms: CA   and  CB  
REMARK   40  A    between atoms: CB   and  CG  
ROOT
ATOM    124  CA  TRP A 131      -8.096  -3.335  26.542  1.00 14.52     0.181 C 
ENDROOT
BRANCH 124 125
ATOM    125  CB  TRP A 131      -7.651  -1.877  26.607  1.00 13.06     0.075 C 
BRANCH 125 126
ATOM    126  CG  TRP A 131      -8.051  -1.051  25.405  1.00 16.97    -0.028 A 
ATOM    127  CD2 TRP A 131      -9.122  -0.105  25.339  1.00 11.34    -0.002 A 
ATOM    128  CE2 TRP A 131      -9.131   0.434  24.038  1.00  5.87     0.042 A 
ATOM    129  CE3 TRP A 131     -10.076   0.339  26.261  1.00  3.80     0.014 A 
ATOM    130  CZ2 TRP A 131     -10.057   1.397  23.634  1.00  1.35     0.030 A 
ATOM    131  NE1 TRP A 131      -8.114  -0.159  23.340  1.00 13.90    -0.365 N 
ATOM    132  CH2 TRP A 131     -10.982   1.815  24.560  1.00  1.00     0.002 A 
ATOM    133  CZ3 TRP A 131     -10.998   1.292  25.866  1.00  1.00     0.001 A 
ATOM    134  CD1 TRP A 131      -7.469  -1.049  24.167  1.00 17.22     0.096 A 
ATOM    135  H07 TRP A 131      -7.876   0.027  22.377  1.00 13.90     0.165 HD
ENDBRANCH 125 126
ENDBRANCH 124 125
END_RES TRP A 131
BEGIN_RES LEU A 148
REMARK  2 active torsions:
REMARK  status: ('A' for Active; 'I' for Inactive)
REMARK   41  A    between atoms: CA   and  CB  
REMARK   42  A    between atoms: CB   and  CG  
ROOT
ATOM    136  CA  LEU A 148      -9.018   3.259  29.295  1.00 16.99     0.177 C 
ENDROOT
BRANCH 136 137
ATOM    137  CB  LEU A 148      -8.166   2.574  28.236  1.00  6.39     0.038 C 
BRANCH 137 138
ATOM    138  CG  LEU A 148      -7.303   3.379  27.286  1.00  1.00    -0.020 C 
ATOM    139  CD2 LEU A 148      -8.042   3.643  26.007  1.00  1.00     0.009 C 
ATOM    140  CD1 LEU A 148      -6.033   2.592  27.016  1.00  2.71     0.009 C 
ENDBRANCH 137 138
ENDBRANCH 136 137
END_RES LEU A 148
BEGIN_RES THR A 154
REMARK  2 active torsions:
REMARK  status: ('A' for Active; 'I' for Inactive)
REMARK   43  A    between atoms: CA   and  CB  
REMARK   44  A    between atoms: CB   and  OG1 
ROOT
ATOM    141  CA  THR A 154     -15.990   3.959  24.426  1.00 20.45     0.205 C 
ENDROOT
BRANCH 141 142
ATOM    142  CB  THR A 154     -14.777   4.829  24.694  1.00 16.79     0.146 C 
ATOM    143  CG2 THR A 154     -13.680   4.520  23.693  1.00 20.24     0.042 C 
BRANCH 142 144
ATOM    144  OG1 THR A 154     -15.153   6.205  24.559  1.00 18.84    -0.393 OA
ATOM    145  H06 THR A 154     -14.819   6.704  25.307  1.00 18.84     0.210 HD
ENDBRANCH 142 144
ENDBRANCH 141 142
END_RES THR A 154
BEGIN_RES VAL A 158
REMARK  1 active torsions:
REMARK  status: ('A' for Active; 'I' for Inactive)
REMARK   45  A    between atoms: CA   and  CB  
ROOT
ATOM    146  CA  VAL A 158     -15.487  -0.189  19.892  1.00 15.49     0.180 C 
ENDROOT
BRANCH 146 147
ATOM    147  CB  VAL A 158     -14.291  -0.273  20.822  1.00  6.52     0.009 C 
ATOM    148  CG1 VAL A 158     -13.250  -1.224  20.277  1.00  1.00     0.012 C 
ATOM    149  CG2 VAL A 158     -13.717   1.100  20.991  1.00  5.99     0.012 C 
ENDBRANCH 146 147
END_RES VAL A 158
BEGIN_RES LEU A 161
REMARK  2 active torsions:
REMARK  status: ('A' for Active; 'I' for Inactive)
REMARK   46  A    between atoms: CA   and  CB  
REMARK   47  A    between atoms: CB   and  CG  
ROOT
ATOM    150  CA  LEU A 161     -18.031  -1.858  15.935  1.00 13.31     0.177 C 
ENDROOT
BRANCH 150 151
ATOM    151  CB  LEU A 161     -17.046  -0.706  16.001  1.00 14.13     0.038 C 
BRANCH 151 152
ATOM    152  CG  LEU A 161     -17.536   0.632  15.462  1.00 19.39    -0.020 C 
ATOM    153  CD2 LEU A 161     -17.448   0.652  13.955  1.00 27.75     0.009 C 
ATOM    154  CD1 LEU A 161     -16.687   1.731  16.042  1.00 18.59     0.009 C 
ENDBRANCH 151 152
ENDBRANCH 150 151
END_RES LEU A 161
BEGIN_RES GLN A 168
REMARK  3 active torsions:
REMARK  status: ('A' for Active; 'I' for Inactive)
REMARK   48  A    between atoms: CA   and  CB  
REMARK   49  A    between atoms: CB   and  CG  
REMARK   50  A    between atoms: CG   and  CD  
REMARK       I    between atoms: CD   and  NE2 
ROOT
ATOM    155  CA  GLN A 168     -22.035  -6.020   8.155  1.00 30.94     0.177 C 
ENDROOT
BRANCH 155 156
ATOM    156  CB  GLN A 168     -23.054  -5.218   8.946  1.00 41.76     0.044 C 
BRANCH 156 157
ATOM    157  CG  GLN A 168     -24.481  -5.430   8.520  1.00 61.20     0.105 C 
BRANCH 157 158
ATOM    158  CD  GLN A 168     -24.982  -4.304   7.637  1.00 75.49     0.215 C 
ATOM    159  NE2 GLN A 168     -24.831  -4.473   6.322  1.00 85.00    -0.370 N 
ATOM    160  H06 GLN A 168     -25.142  -3.757   5.682  1.00 85.00     0.159 HD
ATOM    161  H07 GLN A 168     -24.405  -5.318   5.968  1.00 85.00     0.159 HD
ATOM    162  OE1 GLN A 168     -25.493  -3.287   8.127  1.00 73.64    -0.274 OA
ENDBRANCH 157 158
ENDBRANCH 156 157
ENDBRANCH 155 156
END_RES GLN A 168
ENDMDL
MODEL 6
REMARK VINA RESULT:      -6.0      1.054      1.754
REMARK  Name = human_CD1d_SDS_pred.rank_0
REMARK  12 active torsions:
REMARK  status: ('A' for Active; 'I' for Inactive)
REMARK    1  A    between atoms: O_2  and  S_3
REMARK    2  A    between atoms: O_2  and  C_17
REMARK    3  A    between atoms: C_4  and  C_6
REMARK    4  A    between atoms: C_6  and  C_8
REMARK    5  A    between atoms: C_8  and  C_10
REMARK    6  A    between atoms: C_10  and  C_11
REMARK    7  A    between atoms: C_11  and  C_12
REMARK    8  A    between atoms: C_12  and  C_13
REMARK    9  A    between atoms: C_13  and  C_14
REMARK   10  A    between atoms: C_14  and  C_15
REMARK   11  A    between atoms: C_15  and  C_16
REMARK   12  A    between atoms: C_16  and  C_17
REMARK                            x       y       z     vdW  Elec       q    Type
REMARK                         _______ _______ _______ _____ _____    ______ ____
ROOT
ATOM      1  C   UNL     1     -17.134   2.284   8.173  0.00  0.00    +0.000 C 
ENDROOT
BRANCH   1   2
ATOM      2  C   UNL     1     -15.941   3.159   8.459  0.00  0.00    +0.000 C 
BRANCH   2   3
ATOM      3  C   UNL     1     -16.115   4.587   7.879  0.00  0.00    +0.000 C 
BRANCH   3   4
ATOM      4  C   UNL     1     -14.897   5.013   7.056  0.00  0.00    +0.000 C 
BRANCH   4   5
ATOM      5  C   UNL     1     -14.118   3.805   6.553  0.00  0.00    +0.000 C 
BRANCH   5   6
ATOM      6  C   UNL     1     -12.649   3.848   6.959  0.00  0.00    +0.000 C 
BRANCH   6   7
ATOM      7  C   UNL     1     -12.031   5.175   6.598  0.00  0.00    +0.000 C 
BRANCH   7   9
ATOM      8  C   UNL     1     -10.176   4.172   7.971  0.00  0.00    +0.000 C 
ATOM      9  C   UNL     1     -10.558   5.233   6.968  0.00  0.00    +0.000 C 
ENDBRANCH   7   9
ENDBRANCH   6   7
ENDBRANCH   5   6
ENDBRANCH   4   5
ENDBRANCH   3   4
ENDBRANCH   2   3
ENDBRANCH   1   2
BRANCH   1  10
ATOM     10  C   UNL     1     -17.194   1.068   9.096  0.00  0.00    +0.000 C 
BRANCH  10  11
ATOM     11  C   UNL     1     -15.796   0.454   9.316  0.00  0.00    +0.000 C 
BRANCH  11  12
ATOM     12  C   UNL     1     -15.813  -0.518  10.478  0.00  0.00    +0.000 C 
BRANCH  12  13
ATOM     13  O   UNL     1     -14.565  -1.153  10.618  0.00  0.00    +0.000 OA
BRANCH  13  14
ATOM     14  S   UNL     1     -13.864  -0.985  12.024  0.00  0.00    +0.000 S 
ATOM     15  O   UNL     1     -14.613  -1.754  13.008  0.00  0.00    +0.000 OA
ATOM     16  O   UNL     1     -12.518  -1.439  11.958  0.00  0.00    +0.000 OA
ATOM     17  O   UNL     1     -13.911   0.480  12.354  0.00  0.00    +0.000 OA
ENDBRANCH  13  14
ENDBRANCH  12  13
ENDBRANCH  11  12
ENDBRANCH  10  11
ENDBRANCH   1  10
TORSDOF 12
BEGIN_RES LEU A  10
REMARK  2 active torsions:
REMARK  status: ('A' for Active; 'I' for Inactive)
REMARK    1  A    between atoms: CA   and  CB  
REMARK    2  A    between atoms: CB   and  CG  
ROOT
ATOM      1  CA  LEU A  10     -10.775  -4.871   5.898  1.00 25.14     0.177 C 
ENDROOT
BRANCH   1   2
ATOM      2  CB  LEU A  10     -12.191  -4.387   6.226  1.00 17.87     0.038 C 
BRANCH   2   3
ATOM      3  CG  LEU A  10     -12.376  -2.870   6.143  1.00 24.95    -0.020 C 
ATOM      4  CD2 LEU A  10     -13.650  -2.498   6.825  1.00 26.38     0.009 C 
ATOM      5  CD1 LEU A  10     -12.386  -2.402   4.698  1.00 28.12     0.009 C 
ENDBRANCH   2   3
ENDBRANCH   1   2
END_RES LEU A  10
BEGIN_RES CYS A  12
REMARK  2 active torsions:
REMARK  status: ('A' for Active; 'I' for Inactive)
REMARK    3  A    between atoms: CA   and  CB  
REMARK    4  A    between atoms: CB   and  SG  
ROOT
ATOM      6  CA  CYS A  12      -8.555   0.470   8.750  1.00 23.16     0.185 C 
ENDROOT
BRANCH   6   7
ATOM      7  CB  CYS A  12      -9.828   0.763   9.555  1.00 20.43     0.105 C 
BRANCH   7   8
ATOM      8  SG  CYS A  12     -11.402   0.560   8.665  1.00 24.64    -0.180 SA
ATOM      9  H04 CYS A  12     -12.397   0.404   9.547  1.00 24.64     0.101 HD
ENDBRANCH   7   8
ENDBRANCH   6   7
END_RES CYS A  12
BEGIN_RES GLN A  14
REMARK  3 active torsions:
REMARK  status: ('A' for Active; 'I' for Inactive)
REMARK    5  A    between atoms: CA   and  CB  
REMARK    6  A    between atoms: CB   and  CG  
REMARK    7  A    between atoms: CG   and  CD  
REMARK       I    between atoms: CD   and  NE2 
ROOT
ATOM     10  CA  GLN A  14      -4.645   5.402  11.377  1.00 10.43     0.177 C 
ENDROOT
BRANCH  10  11
ATOM     11  CB  GLN A  14      -5.541   5.549  12.608  1.00 14.45     0.044 C 
BRANCH  11  12
ATOM     12  CG  GLN A  14      -6.612   6.606  12.469  1.00 13.74     0.105 C 
BRANCH  12  13
ATOM     13  CD  GLN A  14      -6.037   7.994  12.314  1.00 16.29     0.215 C 
ATOM     14  NE2 GLN A  14      -6.623   8.776  11.434  1.00  8.57    -0.370 N 
ATOM     15  H06 GLN A  14      -6.283   9.716  11.289  1.00  8.57     0.159 HD
ATOM     16  H07 GLN A  14      -7.414   8.438  10.905  1.00  8.57     0.159 HD
ATOM     17  OE1 GLN A  14      -5.080   8.357  12.980  1.00 23.55    -0.274 OA
ENDBRANCH  12  13
ENDBRANCH  11  12
ENDBRANCH  10  11
END_RES GLN A  14
BEGIN_RES SER A  16
REMARK  2 active torsions:
REMARK  status: ('A' for Active; 'I' for Inactive)
REMARK    8  A    between atoms: CA   and  CB  
REMARK    9  A    between atoms: CB   and  OG  
ROOT
ATOM     18  CA  SER A  16      -1.305  10.019  14.282  1.00  2.34     0.200 C 
ENDROOT
BRANCH  18  19
ATOM     19  CB  SER A  16      -2.242   9.935  15.479  1.00  3.12     0.199 C 
BRANCH  19  20
ATOM     20  OG  SER A  16      -3.465   9.326  15.105  1.00  1.00    -0.398 OA
ATOM     21  H04 SER A  16      -3.288   8.579  14.529  1.00  1.00     0.209 HD
ENDBRANCH  19  20
ENDBRANCH  18  19
END_RES SER A  16
BEGIN_RES LEU A  32
REMARK  2 active torsions:
REMARK  status: ('A' for Active; 'I' for Inactive)
REMARK   10  A    between atoms: CA   and  CB  
REMARK   11  A    between atoms: CB   and  CG  
ROOT
ATOM     22  CA  LEU A  32     -10.272  -4.106   1.587  1.00 16.16     0.177 C 
ENDROOT
BRANCH  22  23
ATOM     23  CB  LEU A  32     -11.613  -3.858   0.880  1.00 12.35     0.038 C 
BRANCH  23  24
ATOM     24  CG  LEU A  32     -12.586  -5.041   1.063  1.00  9.77    -0.020 C 
ATOM     25  CD1 LEU A  32     -13.015  -5.150   2.507  1.00  4.35     0.009 C 
ATOM     26  CD2 LEU A  32     -13.798  -4.880   0.183  1.00 10.60     0.009 C 
ENDBRANCH  23  24
ENDBRANCH  22  23
END_RES LEU A  32
BEGIN_RES HIS A  38
REMARK  2 active torsions:
REMARK  status: ('A' for Active; 'I' for Inactive)
REMARK   12  A    between atoms: CA   and  CB  
REMARK   13  A    between atoms: CB   and  CG  
ROOT
ATOM     27  CA  HIS A  38     -10.959   4.941   1.621  1.00 16.94     0.182 C 
ENDROOT
BRANCH  27  28
ATOM     28  CB  HIS A  38     -11.810   4.840   2.881  1.00 15.47     0.095 C 
BRANCH  28  29
ATOM     29  CG  HIS A  38     -12.995   3.940   2.739  1.00 18.62     0.053 A 
ATOM     30  CD2 HIS A  38     -14.166   4.110   2.079  1.00 15.06     0.116 A 
ATOM     31  NE2 HIS A  38     -14.892   2.959   2.247  1.00 18.12    -0.359 N 
ATOM     32  CE1 HIS A  38     -14.196   2.113   2.983  1.00 14.78     0.207 A 
ATOM     33  H06 HIS A  38     -15.813   2.787   1.869  1.00 18.12     0.166 HD
ATOM     34  ND1 HIS A  38     -13.047   2.680   3.294  1.00 16.58    -0.247 NA
ENDBRANCH  28  29
ENDBRANCH  27  28
END_RES HIS A  38
BEGIN_RES TRP A  63
REMARK  2 active torsions:
REMARK  status: ('A' for Active; 'I' for Inactive)
REMARK   14  A    between atoms: CA   and  CB  
REMARK   15  A    between atoms: CB   and  CG  
ROOT
ATOM     35  CA  TRP A  63     -22.437   6.257   6.543  1.00 27.04     0.181 C 
ENDROOT
BRANCH  35  36
ATOM     36  CB  TRP A  63     -22.360   6.642   5.068  1.00 31.37     0.075 C 
BRANCH  36  37
ATOM     37  CG  TRP A  63     -20.953   6.767   4.523  1.00 34.37    -0.028 A 
ATOM     38  CD2 TRP A  63     -19.895   5.804   4.625  1.00 33.79    -0.002 A 
ATOM     39  CE3 TRP A  63     -19.769   4.559   5.245  1.00 32.99     0.014 A 
ATOM     40  CE2 TRP A  63     -18.791   6.320   3.910  1.00 35.84     0.042 A 
ATOM     41  CZ3 TRP A  63     -18.565   3.878   5.137  1.00 32.93     0.001 A 
ATOM     42  CH2 TRP A  63     -17.486   4.418   4.419  1.00 39.24     0.002 A 
ATOM     43  CZ2 TRP A  63     -17.580   5.635   3.799  1.00 37.99     0.030 A 
ATOM     44  NE1 TRP A  63     -19.166   7.534   3.403  1.00 37.98    -0.365 N 
ATOM     45  H06 TRP A  63     -18.583   8.142   2.845  1.00 37.98     0.165 HD
ATOM     46  CD1 TRP A  63     -20.462   7.793   3.779  1.00 38.16     0.096 A 
ENDBRANCH  36  37
ENDBRANCH  35  36
END_RES TRP A  63
BEGIN_RES LEU A  66
REMARK  2 active torsions:
REMARK  status: ('A' for Active; 'I' for Inactive)
REMARK   16  A    between atoms: CA   and  CB  
REMARK   17  A    between atoms: CB   and  CG  
ROOT
ATOM     47  CA  LEU A  66     -20.004   6.489  11.120  1.00 10.90     0.177 C 
ENDROOT
BRANCH  47  48
ATOM     48  CB  LEU A  66     -19.626   5.453  10.069  1.00 13.57     0.038 C 
BRANCH  48  49
ATOM     49  CG  LEU A  66     -19.199   4.073  10.569  1.00  8.73    -0.020 C 
ATOM     50  CD1 LEU A  66     -19.018   4.083  12.064  1.00 14.23     0.009 C 
ATOM     51  CD2 LEU A  66     -20.262   3.076  10.183  1.00  1.92     0.009 C 
ENDBRANCH  48  49
ENDBRANCH  47  48
END_RES LEU A  66
BEGIN_RES PHE A  70
REMARK  2 active torsions:
REMARK  status: ('A' for Active; 'I' for Inactive)
REMARK   18  A    between atoms: CA   and  CB  
REMARK   19  A    between atoms: CB   and  CG  
ROOT
ATOM     52  CA  PHE A  70     -14.974   9.434  13.165  1.00  8.78     0.180 C 
ENDROOT
BRANCH  52  53
ATOM     53  CB  PHE A  70     -14.707   9.132  11.681  1.00  6.33     0.073 C 
BRANCH  53  54
ATOM     54  CG  PHE A  70     -13.973   7.838  11.456  1.00  3.42    -0.056 A 
ATOM     55  CD1 PHE A  70     -13.483   7.099  12.523  1.00 13.88     0.007 A 
ATOM     56  CE1 PHE A  70     -12.757   5.915  12.303  1.00 12.71     0.001 A 
ATOM     57  CZ  PHE A  70     -12.521   5.467  11.004  1.00  4.21     0.000 A 
ATOM     58  CE2 PHE A  70     -13.006   6.194   9.932  1.00  2.83     0.001 A 
ATOM     59  CD2 PHE A  70     -13.731   7.376  10.162  1.00  1.00     0.007 A 
ENDBRANCH  53  54
ENDBRANCH  52  53
END_RES PHE A  70
BEGIN_RES TYR A  73
REMARK  3 active torsions:
REMARK  status: ('A' for Active; 'I' for Inactive)
REMARK   20  A    between atoms: CA   and  CB  
REMARK   21  A    between atoms: CB   and  CG  
REMARK   22  A    between atoms: CZ   and  OH  
ROOT
ATOM     60  CA  TYR A  73     -13.212  10.166  17.260  1.00 12.17     0.180 C 
ENDROOT
BRANCH  60  61
ATOM     61  CB  TYR A  73     -13.301   8.846  16.517  1.00 12.84     0.073 C 
BRANCH  61  62
ATOM     62  CG  TYR A  73     -13.153   7.663  17.409  1.00 15.89    -0.056 A 
ATOM     63  CD1 TYR A  73     -11.935   7.337  17.962  1.00 16.00     0.010 A 
ATOM     64  CE1 TYR A  73     -11.788   6.212  18.773  1.00 13.55     0.037 A 
ATOM     65  CZ  TYR A  73     -12.884   5.411  19.024  1.00 18.13     0.065 A 
ATOM     66  CE2 TYR A  73     -14.112   5.715  18.485  1.00 15.89     0.037 A 
ATOM     67  CD2 TYR A  73     -14.241   6.840  17.680  1.00 21.86     0.010 A 
BRANCH  65  68
ATOM     68  OH  TYR A  73     -12.763   4.302  19.825  1.00 12.12    -0.361 OA
ATOM     69  H08 TYR A  73     -11.949   3.840  19.611  1.00 12.12     0.217 HD
ENDBRANCH  65  68
ENDBRANCH  61  62
ENDBRANCH  60  61
END_RES TYR A  73
BEGIN_RES PHE A  77
REMARK  2 active torsions:
REMARK  status: ('A' for Active; 'I' for Inactive)
REMARK   23  A    between atoms: CA   and  CB  
REMARK   24  A    between atoms: CB   and  CG  
ROOT
ATOM     70  CA  PHE A  77      -8.400  10.581  20.110  1.00 17.17     0.180 C 
ENDROOT
BRANCH  70  71
ATOM     71  CB  PHE A  77      -8.228   9.750  18.851  1.00 10.44     0.073 C 
BRANCH  71  72
ATOM     72  CG  PHE A  77      -8.239   8.274  19.097  1.00  6.07    -0.056 A 
ATOM     73  CD2 PHE A  77      -8.011   7.391  18.066  1.00  9.61     0.007 A 
ATOM     74  CE2 PHE A  77      -8.018   6.019  18.285  1.00  1.00     0.001 A 
ATOM     75  CZ  PHE A  77      -8.255   5.523  19.556  1.00  1.92     0.000 A 
ATOM     76  CE1 PHE A  77      -8.482   6.393  20.599  1.00  9.25     0.001 A 
ATOM     77  CD1 PHE A  77      -8.475   7.767  20.364  1.00  9.63     0.007 A 
ENDBRANCH  71  72
ENDBRANCH  70  71
END_RES PHE A  77
BEGIN_RES LEU A  96
REMARK  2 active torsions:
REMARK  status: ('A' for Active; 'I' for Inactive)
REMARK   25  A    between atoms: CA   and  CB  
REMARK   26  A    between atoms: CB   and  CG  
ROOT
ATOM     78  CA  LEU A  96       0.717   6.481  17.359  1.00 16.08     0.177 C 
ENDROOT
BRANCH  78  79
ATOM     79  CB  LEU A  96      -0.370   7.101  18.230  1.00 18.83     0.038 C 
BRANCH  79  80
ATOM     80  CG  LEU A  96      -0.145   6.944  19.734  1.00 19.03    -0.020 C 
ATOM     81  CD1 LEU A  96       0.577   8.167  20.249  1.00 28.17     0.009 C 
ATOM     82  CD2 LEU A  96      -1.468   6.829  20.456  1.00 22.01     0.009 C 
ENDBRANCH  79  80
ENDBRANCH  78  79
END_RES LEU A  96
BEGIN_RES VAL A  98
REMARK  1 active torsions:
REMARK  status: ('A' for Active; 'I' for Inactive)
REMARK   27  A    between atoms: CA   and  CB  
ROOT
ATOM     83  CA  VAL A  98      -3.928   2.082  14.897  1.00 19.83     0.180 C 
ENDROOT
BRANCH  83  84
ATOM     84  CB  VAL A  98      -5.203   2.807  15.281  1.00 17.87     0.009 C 
ATOM     85  CG2 VAL A  98      -4.917   4.268  15.512  1.00 29.90     0.012 C 
ATOM     86  CG1 VAL A  98      -5.793   2.172  16.523  1.00 14.79     0.012 C 
ENDBRANCH  83  84
END_RES VAL A  98
BEGIN_RES ASN A 112
REMARK  2 active torsions:
REMARK  status: ('A' for Active; 'I' for Inactive)
REMARK   28  A    between atoms: CA   and  CB  
REMARK   29  A    between atoms: CB   and  CG  
REMARK       I    between atoms: CG   and  ND2 
ROOT
ATOM     87  CA  ASN A 112     -11.790  -8.793  14.069  1.00 37.70     0.185 C 
ENDROOT
BRANCH  87  88
ATOM     88  CB  ASN A 112     -12.992  -7.945  14.465  1.00 26.24     0.137 C 
BRANCH  88  89
ATOM     89  CG  ASN A 112     -13.950  -8.668  15.386  1.00 21.77     0.217 C 
ATOM     90  ND2 ASN A 112     -13.669  -8.612  16.687  1.00  9.31    -0.370 N 
ATOM     91  H04 ASN A 112     -14.269  -9.077  17.354  1.00  9.31     0.159 HD
ATOM     92  H05 ASN A 112     -12.856  -8.105  17.007  1.00  9.31     0.159 HD
ATOM     93  OD1 ASN A 112     -14.929  -9.275  14.936  1.00 21.61    -0.274 OA
ENDBRANCH  88  89
ENDBRANCH  87  88
END_RES ASN A 112
BEGIN_RES PHE A 114
REMARK  2 active torsions:
REMARK  status: ('A' for Active; 'I' for Inactive)
REMARK   30  A    between atoms: CA   and  CB  
REMARK   31  A    between atoms: CB   and  CG  
ROOT
ATOM     94  CA  PHE A 114      -7.754  -3.619  17.012  1.00 26.06     0.180 C 
ENDROOT
BRANCH  94  95
ATOM     95  CB  PHE A 114      -8.890  -3.080  17.867  1.00 19.95     0.073 C 
BRANCH  95  96
ATOM     96  CG  PHE A 114      -9.226  -1.653  17.575  1.00 17.65    -0.056 A 
ATOM     97  CD1 PHE A 114      -8.223  -0.695  17.457  1.00 13.01     0.007 A 
ATOM     98  CE1 PHE A 114      -8.536   0.636  17.214  1.00  6.74     0.001 A 
ATOM     99  CZ  PHE A 114      -9.865   1.027  17.083  1.00  6.27     0.000 A 
ATOM    100  CE2 PHE A 114     -10.871   0.082  17.197  1.00 17.36     0.001 A 
ATOM    101  CD2 PHE A 114     -10.549  -1.257  17.443  1.00 18.39     0.007 A 
ENDBRANCH  95  96
ENDBRANCH  94  95
END_RES PHE A 114
BEGIN_RES VAL A 116
REMARK  1 active torsions:
REMARK  status: ('A' for Active; 'I' for Inactive)
REMARK   32  A    between atoms: CA   and  CB  
ROOT
ATOM    102  CA  VAL A 116      -2.467   0.283  18.565  1.00 13.48     0.180 C 
ENDROOT
BRANCH 102 103
ATOM    103  CB  VAL A 116      -3.101   1.238  19.599  1.00 20.86     0.009 C 
ATOM    104  CG1 VAL A 116      -3.057   2.672  19.065  1.00 25.01     0.012 C 
ATOM    105  CG2 VAL A 116      -4.511   0.811  19.932  1.00 25.34     0.012 C 
ENDBRANCH 102 103
END_RES VAL A 116
BEGIN_RES ILE A 123
REMARK  2 active torsions:
REMARK  status: ('A' for Active; 'I' for Inactive)
REMARK   33  A    between atoms: CA   and  CB  
REMARK   34  A    between atoms: CB   and  CG1 
ROOT
ATOM    106  CA  ILE A 123       1.557  -1.626  23.222  1.00 15.07     0.180 C 
ENDROOT
BRANCH 106 107
ATOM    107  CB  ILE A 123       1.697  -0.112  23.461  1.00 14.41     0.013 C 
ATOM    108  CG2 ILE A 123       3.083   0.201  23.996  1.00 18.35     0.012 C 
BRANCH 107 109
ATOM    109  CG1 ILE A 123       1.446   0.655  22.165  1.00 15.23     0.002 C 
ATOM    110  CD1 ILE A 123       0.180   1.477  22.183  1.00 14.67     0.005 C 
ENDBRANCH 107 109
ENDBRANCH 106 107
END_RES ILE A 123
BEGIN_RES LEU A 124
REMARK  2 active torsions:
REMARK  status: ('A' for Active; 'I' for Inactive)
REMARK   35  A    between atoms: CA   and  CB  
REMARK   36  A    between atoms: CB   and  CG  
ROOT
ATOM    111  CA  LEU A 124      -2.057  -2.686  23.524  1.00 11.86     0.177 C 
ENDROOT
BRANCH 111 112
ATOM    112  CB  LEU A 124      -2.698  -1.652  24.429  1.00 14.60     0.038 C 
BRANCH 112 113
ATOM    113  CG  LEU A 124      -2.631  -0.253  23.835  1.00 16.19    -0.020 C 
ATOM    114  CD1 LEU A 124      -4.057   0.207  23.474  1.00 22.07     0.009 C 
ATOM    115  CD2 LEU A 124      -1.972   0.680  24.820  1.00  9.12     0.009 C 
ENDBRANCH 112 113
ENDBRANCH 111 112
END_RES LEU A 124
BEGIN_RES PHE A 126
REMARK  2 active torsions:
REMARK  status: ('A' for Active; 'I' for Inactive)
REMARK   37  A    between atoms: CA   and  CB  
REMARK   38  A    between atoms: CB   and  CG  
ROOT
ATOM    116  CA  PHE A 126      -8.784  -4.792  22.233  1.00 23.15     0.180 C 
ENDROOT
BRANCH 116 117
ATOM    117  CB  PHE A 126      -9.823  -4.011  21.461  1.00 20.65     0.073 C 
BRANCH 117 118
ATOM    118  CG  PHE A 126     -10.955  -3.553  22.294  1.00 23.65    -0.056 A 
ATOM    119  CD2 PHE A 126     -12.211  -4.116  22.151  1.00 36.63     0.007 A 
ATOM    120  CE2 PHE A 126     -13.283  -3.682  22.942  1.00 36.27     0.001 A 
ATOM    121  CZ  PHE A 126     -13.089  -2.678  23.879  1.00 18.06     0.000 A 
ATOM    122  CE1 PHE A 126     -11.837  -2.114  24.026  1.00  5.50     0.001 A 
ATOM    123  CD1 PHE A 126     -10.775  -2.555  23.236  1.00 15.29     0.007 A 
ENDBRANCH 117 118
ENDBRANCH 116 117
END_RES PHE A 126
BEGIN_RES TRP A 131
REMARK  2 active torsions:
REMARK  status: ('A' for Active; 'I' for Inactive)
REMARK   39  A    between atoms: CA   and  CB  
REMARK   40  A    between atoms: CB   and  CG  
ROOT
ATOM    124  CA  TRP A 131      -8.096  -3.335  26.542  1.00 14.52     0.181 C 
ENDROOT
BRANCH 124 125
ATOM    125  CB  TRP A 131      -7.651  -1.877  26.607  1.00 13.06     0.075 C 
BRANCH 125 126
ATOM    126  CG  TRP A 131      -8.052  -1.051  25.405  1.00 16.97    -0.028 A 
ATOM    127  CD2 TRP A 131      -9.139  -0.125  25.332  1.00 11.34    -0.002 A 
ATOM    128  CE2 TRP A 131      -9.142   0.422  24.033  1.00  5.87     0.042 A 
ATOM    129  CE3 TRP A 131     -10.113   0.295  26.244  1.00  3.80     0.014 A 
ATOM    130  CZ2 TRP A 131     -10.081   1.370  23.624  1.00  1.35     0.030 A 
ATOM    131  NE1 TRP A 131      -8.105  -0.147  23.345  1.00 13.90    -0.365 N 
ATOM    132  CH2 TRP A 131     -11.025   1.765  24.540  1.00  1.00     0.002 A 
ATOM    133  CZ3 TRP A 131     -11.047   1.233  25.844  1.00  1.00     0.001 A 
ATOM    134  CD1 TRP A 131      -7.454  -1.030  24.174  1.00 17.22     0.096 A 
ATOM    135  H07 TRP A 131      -7.859   0.050  22.386  1.00 13.90     0.165 HD
ENDBRANCH 125 126
ENDBRANCH 124 125
END_RES TRP A 131
BEGIN_RES LEU A 148
REMARK  2 active torsions:
REMARK  status: ('A' for Active; 'I' for Inactive)
REMARK   41  A    between atoms: CA   and  CB  
REMARK   42  A    between atoms: CB   and  CG  
ROOT
ATOM    136  CA  LEU A 148      -9.018   3.259  29.295  1.00 16.99     0.177 C 
ENDROOT
BRANCH 136 137
ATOM    137  CB  LEU A 148      -8.166   2.574  28.236  1.00  6.39     0.038 C 
BRANCH 137 138
ATOM    138  CG  LEU A 148      -8.012   3.168  26.851  1.00  1.00    -0.020 C 
ATOM    139  CD2 LEU A 148      -6.813   2.584  26.164  1.00  1.00     0.009 C 
ATOM    140  CD1 LEU A 148      -7.867   4.672  26.992  1.00  2.71     0.009 C 
ENDBRANCH 137 138
ENDBRANCH 136 137
END_RES LEU A 148
BEGIN_RES THR A 154
REMARK  2 active torsions:
REMARK  status: ('A' for Active; 'I' for Inactive)
REMARK   43  A    between atoms: CA   and  CB  
REMARK   44  A    between atoms: CB   and  OG1 
ROOT
ATOM    141  CA  THR A 154     -15.990   3.959  24.426  1.00 20.45     0.205 C 
ENDROOT
BRANCH 141 142
ATOM    142  CB  THR A 154     -14.777   4.829  24.694  1.00 16.79     0.146 C 
ATOM    143  CG2 THR A 154     -13.660   4.481  23.729  1.00 20.24     0.042 C 
BRANCH 142 144
ATOM    144  OG1 THR A 154     -15.140   6.203  24.506  1.00 18.84    -0.393 OA
ATOM    145  H06 THR A 154     -14.472   6.641  23.974  1.00 18.84     0.210 HD
ENDBRANCH 142 144
ENDBRANCH 141 142
END_RES THR A 154
BEGIN_RES VAL A 158
REMARK  1 active torsions:
REMARK  status: ('A' for Active; 'I' for Inactive)
REMARK   45  A    between atoms: CA   and  CB  
ROOT
ATOM    146  CA  VAL A 158     -15.487  -0.189  19.892  1.00 15.49     0.180 C 
ENDROOT
BRANCH 146 147
ATOM    147  CB  VAL A 158     -14.291  -0.273  20.822  1.00  6.52     0.009 C 
ATOM    148  CG1 VAL A 158     -13.243  -1.211  20.269  1.00  1.00     0.012 C 
ATOM    149  CG2 VAL A 158     -13.728   1.102  21.005  1.00  5.99     0.012 C 
ENDBRANCH 146 147
END_RES VAL A 158
BEGIN_RES LEU A 161
REMARK  2 active torsions:
REMARK  status: ('A' for Active; 'I' for Inactive)
REMARK   46  A    between atoms: CA   and  CB  
REMARK   47  A    between atoms: CB   and  CG  
ROOT
ATOM    150  CA  LEU A 161     -18.031  -1.858  15.935  1.00 13.31     0.177 C 
ENDROOT
BRANCH 150 151
ATOM    151  CB  LEU A 161     -17.046  -0.706  16.001  1.00 14.13     0.038 C 
BRANCH 151 152
ATOM    152  CG  LEU A 161     -17.491   0.600  15.354  1.00 19.39    -0.020 C 
ATOM    153  CD2 LEU A 161     -17.204   0.573  13.872  1.00 27.75     0.009 C 
ATOM    154  CD1 LEU A 161     -16.752   1.740  16.001  1.00 18.59     0.009 C 
ENDBRANCH 151 152
ENDBRANCH 150 151
END_RES LEU A 161
BEGIN_RES GLN A 168
REMARK  3 active torsions:
REMARK  status: ('A' for Active; 'I' for Inactive)
REMARK   48  A    between atoms: CA   and  CB  
REMARK   49  A    between atoms: CB   and  CG  
REMARK   50  A    between atoms: CG   and  CD  
REMARK       I    between atoms: CD   and  NE2 
ROOT
ATOM    155  CA  GLN A 168     -22.035  -6.020   8.155  1.00 30.94     0.177 C 
ENDROOT
BRANCH 155 156
ATOM    156  CB  GLN A 168     -23.054  -5.218   8.946  1.00 41.76     0.044 C 
BRANCH 156 157
ATOM    157  CG  GLN A 168     -24.482  -5.432   8.522  1.00 61.20     0.105 C 
BRANCH 157 158
ATOM    158  CD  GLN A 168     -24.982  -4.309   7.634  1.00 75.49     0.215 C 
ATOM    159  NE2 GLN A 168     -24.825  -4.480   6.320  1.00 85.00    -0.370 N 
ATOM    160  H06 GLN A 168     -25.135  -3.766   5.677  1.00 85.00     0.159 HD
ATOM    161  H07 GLN A 168     -24.394  -5.324   5.969  1.00 85.00     0.159 HD
ATOM    162  OE1 GLN A 168     -25.499  -3.293   8.120  1.00 73.64    -0.274 OA
ENDBRANCH 157 158
ENDBRANCH 156 157
ENDBRANCH 155 156
END_RES GLN A 168
ENDMDL
MODEL 7
REMARK VINA RESULT:      -6.0      2.106      4.508
REMARK  Name = human_CD1d_SDS_pred.rank_0
REMARK  12 active torsions:
REMARK  status: ('A' for Active; 'I' for Inactive)
REMARK    1  A    between atoms: O_2  and  S_3
REMARK    2  A    between atoms: O_2  and  C_17
REMARK    3  A    between atoms: C_4  and  C_6
REMARK    4  A    between atoms: C_6  and  C_8
REMARK    5  A    between atoms: C_8  and  C_10
REMARK    6  A    between atoms: C_10  and  C_11
REMARK    7  A    between atoms: C_11  and  C_12
REMARK    8  A    between atoms: C_12  and  C_13
REMARK    9  A    between atoms: C_13  and  C_14
REMARK   10  A    between atoms: C_14  and  C_15
REMARK   11  A    between atoms: C_15  and  C_16
REMARK   12  A    between atoms: C_16  and  C_17
REMARK                            x       y       z     vdW  Elec       q    Type
REMARK                         _______ _______ _______ _____ _____    ______ ____
ROOT
ATOM      1  C   UNL     1      -9.917   6.574  15.145  0.00  0.00    +0.000 C 
ENDROOT
BRANCH   1   2
ATOM      2  C   UNL     1     -10.547   5.238  15.439  0.00  0.00    +0.000 C 
BRANCH   2   3
ATOM      3  C   UNL     1      -9.495   4.174  15.846  0.00  0.00    +0.000 C 
BRANCH   3   4
ATOM      4  C   UNL     1     -10.156   2.879  16.324  0.00  0.00    +0.000 C 
BRANCH   4   5
ATOM      5  C   UNL     1     -11.165   3.150  17.432  0.00  0.00    +0.000 C 
BRANCH   5   6
ATOM      6  C   UNL     1     -11.788   1.871  17.977  0.00  0.00    +0.000 C 
BRANCH   6   7
ATOM      7  C   UNL     1     -13.136   1.619  17.351  0.00  0.00    +0.000 C 
BRANCH   7   9
ATOM      8  C   UNL     1     -11.945  -0.540  16.851  0.00  0.00    +0.000 C 
ATOM      9  C   UNL     1     -13.260   0.200  16.823  0.00  0.00    +0.000 C 
ENDBRANCH   7   9
ENDBRANCH   6   7
ENDBRANCH   5   6
ENDBRANCH   4   5
ENDBRANCH   3   4
ENDBRANCH   2   3
ENDBRANCH   1   2
BRANCH   1  10
ATOM     10  C   UNL     1      -8.470   6.650  15.629  0.00  0.00    +0.000 C 
BRANCH  10  11
ATOM     11  C   UNL     1      -7.901   8.077  15.498  0.00  0.00    +0.000 C 
BRANCH  11  12
ATOM     12  C   UNL     1      -6.480   8.140  16.018  0.00  0.00    +0.000 C 
BRANCH  12  13
ATOM     13  O   UNL     1      -6.020   6.859  16.374  0.00  0.00    +0.000 OA
BRANCH  13  14
ATOM     14  S   UNL     1      -4.645   6.816  17.153  0.00  0.00    +0.000 S 
ATOM     15  O   UNL     1      -4.372   8.144  17.682  0.00  0.00    +0.000 OA
ATOM     16  O   UNL     1      -4.709   5.864  18.207  0.00  0.00    +0.000 OA
ATOM     17  O   UNL     1      -3.598   6.423  16.150  0.00  0.00    +0.000 OA
ENDBRANCH  13  14
ENDBRANCH  12  13
ENDBRANCH  11  12
ENDBRANCH  10  11
ENDBRANCH   1  10
TORSDOF 12
BEGIN_RES LEU A  10
REMARK  2 active torsions:
REMARK  status: ('A' for Active; 'I' for Inactive)
REMARK    1  A    between atoms: CA   and  CB  
REMARK    2  A    between atoms: CB   and  CG  
ROOT
ATOM      1  CA  LEU A  10     -10.775  -4.871   5.898  1.00 25.14     0.177 C 
ENDROOT
BRANCH   1   2
ATOM      2  CB  LEU A  10     -12.191  -4.387   6.226  1.00 17.87     0.038 C 
BRANCH   2   3
ATOM      3  CG  LEU A  10     -12.513  -2.980   5.717  1.00 24.95    -0.020 C 
ATOM      4  CD2 LEU A  10     -13.645  -2.423   6.512  1.00 26.38     0.009 C 
ATOM      5  CD1 LEU A  10     -12.857  -3.003   4.238  1.00 28.12     0.009 C 
ENDBRANCH   2   3
ENDBRANCH   1   2
END_RES LEU A  10
BEGIN_RES CYS A  12
REMARK  2 active torsions:
REMARK  status: ('A' for Active; 'I' for Inactive)
REMARK    3  A    between atoms: CA   and  CB  
REMARK    4  A    between atoms: CB   and  SG  
ROOT
ATOM      6  CA  CYS A  12      -8.555   0.470   8.750  1.00 23.16     0.185 C 
ENDROOT
BRANCH   6   7
ATOM      7  CB  CYS A  12      -9.828   0.763   9.555  1.00 20.43     0.105 C 
BRANCH   7   8
ATOM      8  SG  CYS A  12     -10.944   2.020   8.858  1.00 24.64    -0.180 SA
ATOM      9  H04 CYS A  12     -11.089   3.024   9.734  1.00 24.64     0.101 HD
ENDBRANCH   7   8
ENDBRANCH   6   7
END_RES CYS A  12
BEGIN_RES GLN A  14
REMARK  3 active torsions:
REMARK  status: ('A' for Active; 'I' for Inactive)
REMARK    5  A    between atoms: CA   and  CB  
REMARK    6  A    between atoms: CB   and  CG  
REMARK    7  A    between atoms: CG   and  CD  
REMARK       I    between atoms: CD   and  NE2 
ROOT
ATOM     10  CA  GLN A  14      -4.645   5.402  11.377  1.00 10.43     0.177 C 
ENDROOT
BRANCH  10  11
ATOM     11  CB  GLN A  14      -5.541   5.549  12.608  1.00 14.45     0.044 C 
BRANCH  11  12
ATOM     12  CG  GLN A  14      -6.630   6.586  12.458  1.00 13.74     0.105 C 
BRANCH  12  13
ATOM     13  CD  GLN A  14      -6.079   7.977  12.254  1.00 16.29     0.215 C 
ATOM     14  NE2 GLN A  14      -6.727   8.745  11.405  1.00  8.57    -0.370 N 
ATOM     15  H06 GLN A  14      -6.405   9.686  11.230  1.00  8.57     0.159 HD
ATOM     16  H07 GLN A  14      -7.545   8.394  10.929  1.00  8.57     0.159 HD
ATOM     17  OE1 GLN A  14      -5.086   8.355  12.855  1.00 23.55    -0.274 OA
ENDBRANCH  12  13
ENDBRANCH  11  12
ENDBRANCH  10  11
END_RES GLN A  14
BEGIN_RES SER A  16
REMARK  2 active torsions:
REMARK  status: ('A' for Active; 'I' for Inactive)
REMARK    8  A    between atoms: CA   and  CB  
REMARK    9  A    between atoms: CB   and  OG  
ROOT
ATOM     18  CA  SER A  16      -1.305  10.019  14.282  1.00  2.34     0.200 C 
ENDROOT
BRANCH  18  19
ATOM     19  CB  SER A  16      -2.242   9.935  15.479  1.00  3.12     0.199 C 
BRANCH  19  20
ATOM     20  OG  SER A  16      -3.477   9.355  15.098  1.00  1.00    -0.398 OA
ATOM     21  H04 SER A  16      -3.819   9.810  14.325  1.00  1.00     0.209 HD
ENDBRANCH  19  20
ENDBRANCH  18  19
END_RES SER A  16
BEGIN_RES LEU A  32
REMARK  2 active torsions:
REMARK  status: ('A' for Active; 'I' for Inactive)
REMARK   10  A    between atoms: CA   and  CB  
REMARK   11  A    between atoms: CB   and  CG  
ROOT
ATOM     22  CA  LEU A  32     -10.272  -4.106   1.587  1.00 16.16     0.177 C 
ENDROOT
BRANCH  22  23
ATOM     23  CB  LEU A  32     -11.613  -3.858   0.880  1.00 12.35     0.038 C 
BRANCH  23  24
ATOM     24  CG  LEU A  32     -12.599  -5.025   1.093  1.00  9.77    -0.020 C 
ATOM     25  CD1 LEU A  32     -14.021  -4.552   0.905  1.00  4.35     0.009 C 
ATOM     26  CD2 LEU A  32     -12.309  -6.154   0.140  1.00 10.60     0.009 C 
ENDBRANCH  23  24
ENDBRANCH  22  23
END_RES LEU A  32
BEGIN_RES HIS A  38
REMARK  2 active torsions:
REMARK  status: ('A' for Active; 'I' for Inactive)
REMARK   12  A    between atoms: CA   and  CB  
REMARK   13  A    between atoms: CB   and  CG  
ROOT
ATOM     27  CA  HIS A  38     -10.959   4.941   1.621  1.00 16.94     0.182 C 
ENDROOT
BRANCH  27  28
ATOM     28  CB  HIS A  38     -11.810   4.840   2.881  1.00 15.47     0.095 C 
BRANCH  28  29
ATOM     29  CG  HIS A  38     -12.994   3.938   2.739  1.00 18.62     0.053 A 
ATOM     30  CD2 HIS A  38     -14.159   4.101   2.068  1.00 15.06     0.116 A 
ATOM     31  NE2 HIS A  38     -14.887   2.952   2.244  1.00 18.12    -0.359 N 
ATOM     32  CE1 HIS A  38     -14.197   2.115   2.995  1.00 14.78     0.207 A 
ATOM     33  H06 HIS A  38     -15.804   2.775   1.860  1.00 18.12     0.166 HD
ATOM     34  ND1 HIS A  38     -13.051   2.685   3.309  1.00 16.58    -0.247 NA
ENDBRANCH  28  29
ENDBRANCH  27  28
END_RES HIS A  38
BEGIN_RES TRP A  63
REMARK  2 active torsions:
REMARK  status: ('A' for Active; 'I' for Inactive)
REMARK   14  A    between atoms: CA   and  CB  
REMARK   15  A    between atoms: CB   and  CG  
ROOT
ATOM     35  CA  TRP A  63     -22.437   6.257   6.543  1.00 27.04     0.181 C 
ENDROOT
BRANCH  35  36
ATOM     36  CB  TRP A  63     -22.360   6.642   5.068  1.00 31.37     0.075 C 
BRANCH  36  37
ATOM     37  CG  TRP A  63     -20.953   6.776   4.525  1.00 34.37    -0.028 A 
ATOM     38  CD2 TRP A  63     -19.890   5.817   4.623  1.00 33.79    -0.002 A 
ATOM     39  CE3 TRP A  63     -19.760   4.569   5.237  1.00 32.99     0.014 A 
ATOM     40  CE2 TRP A  63     -18.789   6.341   3.912  1.00 35.84     0.042 A 
ATOM     41  CZ3 TRP A  63     -18.553   3.894   5.127  1.00 32.93     0.001 A 
ATOM     42  CH2 TRP A  63     -17.475   4.442   4.413  1.00 39.24     0.002 A 
ATOM     43  CZ2 TRP A  63     -17.575   5.662   3.799  1.00 37.99     0.030 A 
ATOM     44  NE1 TRP A  63     -19.167   7.557   3.412  1.00 37.98    -0.365 N 
ATOM     45  H06 TRP A  63     -18.587   8.170   2.857  1.00 37.98     0.165 HD
ATOM     46  CD1 TRP A  63     -20.465   7.808   3.787  1.00 38.16     0.096 A 
ENDBRANCH  36  37
ENDBRANCH  35  36
END_RES TRP A  63
BEGIN_RES LEU A  66
REMARK  2 active torsions:
REMARK  status: ('A' for Active; 'I' for Inactive)
REMARK   16  A    between atoms: CA   and  CB  
REMARK   17  A    between atoms: CB   and  CG  
ROOT
ATOM     47  CA  LEU A  66     -20.004   6.489  11.120  1.00 10.90     0.177 C 
ENDROOT
BRANCH  47  48
ATOM     48  CB  LEU A  66     -19.626   5.453  10.069  1.00 13.57     0.038 C 
BRANCH  48  49
ATOM     49  CG  LEU A  66     -19.495   4.003  10.532  1.00  8.73    -0.020 C 
ATOM     50  CD1 LEU A  66     -20.732   3.218  10.177  1.00 14.23     0.009 C 
ATOM     51  CD2 LEU A  66     -18.288   3.395   9.864  1.00  1.92     0.009 C 
ENDBRANCH  48  49
ENDBRANCH  47  48
END_RES LEU A  66
BEGIN_RES PHE A  70
REMARK  2 active torsions:
REMARK  status: ('A' for Active; 'I' for Inactive)
REMARK   18  A    between atoms: CA   and  CB  
REMARK   19  A    between atoms: CB   and  CG  
ROOT
ATOM     52  CA  PHE A  70     -14.974   9.434  13.165  1.00  8.78     0.180 C 
ENDROOT
BRANCH  52  53
ATOM     53  CB  PHE A  70     -14.707   9.132  11.681  1.00  6.33     0.073 C 
BRANCH  53  54
ATOM     54  CG  PHE A  70     -13.914   7.872  11.460  1.00  3.42    -0.056 A 
ATOM     55  CD1 PHE A  70     -13.675   7.393  10.181  1.00 13.88     0.007 A 
ATOM     56  CE1 PHE A  70     -12.974   6.190   9.984  1.00 12.71     0.001 A 
ATOM     57  CZ  PHE A  70     -12.508   5.462  11.078  1.00  4.21     0.000 A 
ATOM     58  CE2 PHE A  70     -12.739   5.931  12.358  1.00  2.83     0.001 A 
ATOM     59  CD2 PHE A  70     -13.440   7.134  12.545  1.00  1.00     0.007 A 
ENDBRANCH  53  54
ENDBRANCH  52  53
END_RES PHE A  70
BEGIN_RES TYR A  73
REMARK  3 active torsions:
REMARK  status: ('A' for Active; 'I' for Inactive)
REMARK   20  A    between atoms: CA   and  CB  
REMARK   21  A    between atoms: CB   and  CG  
REMARK   22  A    between atoms: CZ   and  OH  
ROOT
ATOM     60  CA  TYR A  73     -13.212  10.166  17.260  1.00 12.17     0.180 C 
ENDROOT
BRANCH  60  61
ATOM     61  CB  TYR A  73     -13.301   8.846  16.517  1.00 12.84     0.073 C 
BRANCH  61  62
ATOM     62  CG  TYR A  73     -13.531   7.684  17.418  1.00 15.89    -0.056 A 
ATOM     63  CD1 TYR A  73     -13.673   6.410  16.914  1.00 16.00     0.010 A 
ATOM     64  CE1 TYR A  73     -13.919   5.324  17.753  1.00 13.55     0.037 A 
ATOM     65  CZ  TYR A  73     -14.023   5.531  19.114  1.00 18.13     0.065 A 
ATOM     66  CE2 TYR A  73     -13.883   6.792  19.644  1.00 15.89     0.037 A 
ATOM     67  CD2 TYR A  73     -13.638   7.863  18.793  1.00 21.86     0.010 A 
BRANCH  65  68
ATOM     68  OH  TYR A  73     -14.259   4.475  19.960  1.00 12.12    -0.361 OA
ATOM     69  H08 TYR A  73     -13.424   4.081  20.222  1.00 12.12     0.217 HD
ENDBRANCH  65  68
ENDBRANCH  61  62
ENDBRANCH  60  61
END_RES TYR A  73
BEGIN_RES PHE A  77
REMARK  2 active torsions:
REMARK  status: ('A' for Active; 'I' for Inactive)
REMARK   23  A    between atoms: CA   and  CB  
REMARK   24  A    between atoms: CB   and  CG  
ROOT
ATOM     70  CA  PHE A  77      -8.400  10.581  20.110  1.00 17.17     0.180 C 
ENDROOT
BRANCH  70  71
ATOM     71  CB  PHE A  77      -8.228   9.750  18.851  1.00 10.44     0.073 C 
BRANCH  71  72
ATOM     72  CG  PHE A  77      -8.596   8.310  19.024  1.00  6.07    -0.056 A 
ATOM     73  CD2 PHE A  77      -7.660   7.395  19.448  1.00  9.61     0.007 A 
ATOM     74  CE2 PHE A  77      -7.994   6.055  19.613  1.00  1.00     0.001 A 
ATOM     75  CZ  PHE A  77      -9.285   5.628  19.353  1.00  1.92     0.000 A 
ATOM     76  CE1 PHE A  77     -10.233   6.531  18.930  1.00  9.25     0.001 A 
ATOM     77  CD1 PHE A  77      -9.885   7.871  18.766  1.00  9.63     0.007 A 
ENDBRANCH  71  72
ENDBRANCH  70  71
END_RES PHE A  77
BEGIN_RES LEU A  96
REMARK  2 active torsions:
REMARK  status: ('A' for Active; 'I' for Inactive)
REMARK   25  A    between atoms: CA   and  CB  
REMARK   26  A    between atoms: CB   and  CG  
ROOT
ATOM     78  CA  LEU A  96       0.717   6.481  17.359  1.00 16.08     0.177 C 
ENDROOT
BRANCH  78  79
ATOM     79  CB  LEU A  96      -0.370   7.101  18.230  1.00 18.83     0.038 C 
BRANCH  79  80
ATOM     80  CG  LEU A  96      -0.168   6.906  19.732  1.00 19.03    -0.020 C 
ATOM     81  CD1 LEU A  96       0.430   5.539  19.971  1.00 28.17     0.009 C 
ATOM     82  CD2 LEU A  96       0.783   7.946  20.276  1.00 22.01     0.009 C 
ENDBRANCH  79  80
ENDBRANCH  78  79
END_RES LEU A  96
BEGIN_RES VAL A  98
REMARK  1 active torsions:
REMARK  status: ('A' for Active; 'I' for Inactive)
REMARK   27  A    between atoms: CA   and  CB  
ROOT
ATOM     83  CA  VAL A  98      -3.928   2.082  14.897  1.00 19.83     0.180 C 
ENDROOT
BRANCH  83  84
ATOM     84  CB  VAL A  98      -5.203   2.807  15.281  1.00 17.87     0.009 C 
ATOM     85  CG2 VAL A  98      -5.263   2.991  16.775  1.00 29.90     0.012 C 
ATOM     86  CG1 VAL A  98      -6.400   2.022  14.788  1.00 14.79     0.012 C 
ENDBRANCH  83  84
END_RES VAL A  98
BEGIN_RES ASN A 112
REMARK  2 active torsions:
REMARK  status: ('A' for Active; 'I' for Inactive)
REMARK   28  A    between atoms: CA   and  CB  
REMARK   29  A    between atoms: CB   and  CG  
REMARK       I    between atoms: CG   and  ND2 
ROOT
ATOM     87  CA  ASN A 112     -11.790  -8.793  14.069  1.00 37.70     0.185 C 
ENDROOT
BRANCH  87  88
ATOM     88  CB  ASN A 112     -12.992  -7.945  14.465  1.00 26.24     0.137 C 
BRANCH  88  89
ATOM     89  CG  ASN A 112     -13.812  -8.561  15.576  1.00 21.77     0.217 C 
ATOM     90  ND2 ASN A 112     -14.960  -9.133  15.212  1.00  9.31    -0.370 N 
ATOM     91  H04 ASN A 112     -15.554  -9.561  15.908  1.00  9.31     0.159 HD
ATOM     92  H05 ASN A 112     -15.235  -9.139  14.240  1.00  9.31     0.159 HD
ATOM     93  OD1 ASN A 112     -13.425  -8.522  16.750  1.00 21.61    -0.274 OA
ENDBRANCH  88  89
ENDBRANCH  87  88
END_RES ASN A 112
BEGIN_RES PHE A 114
REMARK  2 active torsions:
REMARK  status: ('A' for Active; 'I' for Inactive)
REMARK   30  A    between atoms: CA   and  CB  
REMARK   31  A    between atoms: CB   and  CG  
ROOT
ATOM     94  CA  PHE A 114      -7.754  -3.619  17.012  1.00 26.06     0.180 C 
ENDROOT
BRANCH  94  95
ATOM     95  CB  PHE A 114      -8.890  -3.080  17.867  1.00 19.95     0.073 C 
BRANCH  95  96
ATOM     96  CG  PHE A 114      -8.721  -1.642  18.238  1.00 17.65    -0.056 A 
ATOM     97  CD1 PHE A 114      -8.071  -0.757  17.383  1.00 13.01     0.007 A 
ATOM     98  CE1 PHE A 114      -7.888   0.572  17.739  1.00  6.74     0.001 A 
ATOM     99  CZ  PHE A 114      -8.359   1.037  18.964  1.00  6.27     0.000 A 
ATOM    100  CE2 PHE A 114      -9.010   0.166  19.822  1.00 17.36     0.001 A 
ATOM    101  CD2 PHE A 114      -9.189  -1.173  19.457  1.00 18.39     0.007 A 
ENDBRANCH  95  96
ENDBRANCH  94  95
END_RES PHE A 114
BEGIN_RES VAL A 116
REMARK  1 active torsions:
REMARK  status: ('A' for Active; 'I' for Inactive)
REMARK   32  A    between atoms: CA   and  CB  
ROOT
ATOM    102  CA  VAL A 116      -2.467   0.283  18.565  1.00 13.48     0.180 C 
ENDROOT
BRANCH 102 103
ATOM    103  CB  VAL A 116      -3.101   1.238  19.599  1.00 20.86     0.009 C 
ATOM    104  CG1 VAL A 116      -2.754   2.685  19.239  1.00 25.01     0.012 C 
ATOM    105  CG2 VAL A 116      -4.595   1.028  19.681  1.00 25.34     0.012 C 
ENDBRANCH 102 103
END_RES VAL A 116
BEGIN_RES ILE A 123
REMARK  2 active torsions:
REMARK  status: ('A' for Active; 'I' for Inactive)
REMARK   33  A    between atoms: CA   and  CB  
REMARK   34  A    between atoms: CB   and  CG1 
ROOT
ATOM    106  CA  ILE A 123       1.557  -1.626  23.222  1.00 15.07     0.180 C 
ENDROOT
BRANCH 106 107
ATOM    107  CB  ILE A 123       1.697  -0.112  23.461  1.00 14.41     0.013 C 
ATOM    108  CG2 ILE A 123       3.089   0.203  23.979  1.00 18.35     0.012 C 
BRANCH 107 109
ATOM    109  CG1 ILE A 123       1.428   0.656  22.169  1.00 15.23     0.002 C 
ATOM    110  CD1 ILE A 123       0.203   1.535  22.231  1.00 14.67     0.005 C 
ENDBRANCH 107 109
ENDBRANCH 106 107
END_RES ILE A 123
BEGIN_RES LEU A 124
REMARK  2 active torsions:
REMARK  status: ('A' for Active; 'I' for Inactive)
REMARK   35  A    between atoms: CA   and  CB  
REMARK   36  A    between atoms: CB   and  CG  
ROOT
ATOM    111  CA  LEU A 124      -2.057  -2.686  23.524  1.00 11.86     0.177 C 
ENDROOT
BRANCH 111 112
ATOM    112  CB  LEU A 124      -2.698  -1.652  24.429  1.00 14.60     0.038 C 
BRANCH 112 113
ATOM    113  CG  LEU A 124      -2.602  -0.248  23.851  1.00 16.19    -0.020 C 
ATOM    114  CD1 LEU A 124      -3.996   0.190  23.363  1.00 22.07     0.009 C 
ATOM    115  CD2 LEU A 124      -2.051   0.689  24.896  1.00  9.12     0.009 C 
ENDBRANCH 112 113
ENDBRANCH 111 112
END_RES LEU A 124
BEGIN_RES PHE A 126
REMARK  2 active torsions:
REMARK  status: ('A' for Active; 'I' for Inactive)
REMARK   37  A    between atoms: CA   and  CB  
REMARK   38  A    between atoms: CB   and  CG  
ROOT
ATOM    116  CA  PHE A 126      -8.784  -4.792  22.233  1.00 23.15     0.180 C 
ENDROOT
BRANCH 116 117
ATOM    117  CB  PHE A 126      -9.823  -4.011  21.461  1.00 20.65     0.073 C 
BRANCH 117 118
ATOM    118  CG  PHE A 126     -10.952  -3.546  22.296  1.00 23.65    -0.056 A 
ATOM    119  CD2 PHE A 126     -10.771  -2.543  23.232  1.00 36.63     0.007 A 
ATOM    120  CE2 PHE A 126     -11.842  -2.103  24.021  1.00 36.27     0.001 A 
ATOM    121  CZ  PHE A 126     -13.096  -2.675  23.868  1.00 18.06     0.000 A 
ATOM    122  CE1 PHE A 126     -13.280  -3.675  22.933  1.00  5.50     0.001 A 
ATOM    123  CD1 PHE A 126     -12.210  -4.105  22.150  1.00 15.29     0.007 A 
ENDBRANCH 117 118
ENDBRANCH 116 117
END_RES PHE A 126
BEGIN_RES TRP A 131
REMARK  2 active torsions:
REMARK  status: ('A' for Active; 'I' for Inactive)
REMARK   39  A    between atoms: CA   and  CB  
REMARK   40  A    between atoms: CB   and  CG  
ROOT
ATOM    124  CA  TRP A 131      -8.096  -3.335  26.542  1.00 14.52     0.181 C 
ENDROOT
BRANCH 124 125
ATOM    125  CB  TRP A 131      -7.651  -1.877  26.607  1.00 13.06     0.075 C 
BRANCH 125 126
ATOM    126  CG  TRP A 131      -8.037  -1.055  25.397  1.00 16.97    -0.028 A 
ATOM    127  CD2 TRP A 131      -9.121  -0.127  25.308  1.00 11.34    -0.002 A 
ATOM    128  CE2 TRP A 131      -9.109   0.414  24.008  1.00  5.87     0.042 A 
ATOM    129  CE3 TRP A 131     -10.105   0.298  26.209  1.00  3.80     0.014 A 
ATOM    130  CZ2 TRP A 131     -10.042   1.363  23.585  1.00  1.35     0.030 A 
ATOM    131  NE1 TRP A 131      -8.066  -0.159  23.333  1.00 13.90    -0.365 N 
ATOM    132  CH2 TRP A 131     -10.995   1.763  24.489  1.00  1.00     0.002 A 
ATOM    133  CZ3 TRP A 131     -11.033   1.236  25.794  1.00  1.00     0.001 A 
ATOM    134  CD1 TRP A 131      -7.426  -1.040  24.173  1.00 17.22     0.096 A 
ATOM    135  H07 TRP A 131      -7.809   0.033  22.376  1.00 13.90     0.165 HD
ENDBRANCH 125 126
ENDBRANCH 124 125
END_RES TRP A 131
BEGIN_RES LEU A 148
REMARK  2 active torsions:
REMARK  status: ('A' for Active; 'I' for Inactive)
REMARK   41  A    between atoms: CA   and  CB  
REMARK   42  A    between atoms: CB   and  CG  
ROOT
ATOM    136  CA  LEU A 148      -9.018   3.259  29.295  1.00 16.99     0.177 C 
ENDROOT
BRANCH 136 137
ATOM    137  CB  LEU A 148      -8.166   2.574  28.236  1.00  6.39     0.038 C 
BRANCH 137 138
ATOM    138  CG  LEU A 148      -7.994   3.180  26.858  1.00  1.00    -0.020 C 
ATOM    139  CD2 LEU A 148      -6.591   3.683  26.682  1.00  1.00     0.009 C 
ATOM    140  CD1 LEU A 148      -8.991   4.315  26.710  1.00  2.71     0.009 C 
ENDBRANCH 137 138
ENDBRANCH 136 137
END_RES LEU A 148
BEGIN_RES THR A 154
REMARK  2 active torsions:
REMARK  status: ('A' for Active; 'I' for Inactive)
REMARK   43  A    between atoms: CA   and  CB  
REMARK   44  A    between atoms: CB   and  OG1 
ROOT
ATOM    141  CA  THR A 154     -15.990   3.959  24.426  1.00 20.45     0.205 C 
ENDROOT
BRANCH 141 142
ATOM    142  CB  THR A 154     -14.777   4.829  24.694  1.00 16.79     0.146 C 
ATOM    143  CG2 THR A 154     -13.684   4.527  23.687  1.00 20.24     0.042 C 
BRANCH 142 144
ATOM    144  OG1 THR A 154     -15.156   6.205  24.568  1.00 18.84    -0.393 OA
ATOM    145  H06 THR A 154     -14.469   6.762  24.942  1.00 18.84     0.210 HD
ENDBRANCH 142 144
ENDBRANCH 141 142
END_RES THR A 154
BEGIN_RES VAL A 158
REMARK  1 active torsions:
REMARK  status: ('A' for Active; 'I' for Inactive)
REMARK   45  A    between atoms: CA   and  CB  
ROOT
ATOM    146  CA  VAL A 158     -15.487  -0.189  19.892  1.00 15.49     0.180 C 
ENDROOT
BRANCH 146 147
ATOM    147  CB  VAL A 158     -14.291  -0.273  20.822  1.00  6.52     0.009 C 
ATOM    148  CG1 VAL A 158     -13.243  -1.212  20.270  1.00  1.00     0.012 C 
ATOM    149  CG2 VAL A 158     -13.727   1.102  21.003  1.00  5.99     0.012 C 
ENDBRANCH 146 147
END_RES VAL A 158
BEGIN_RES LEU A 161
REMARK  2 active torsions:
REMARK  status: ('A' for Active; 'I' for Inactive)
REMARK   46  A    between atoms: CA   and  CB  
REMARK   47  A    between atoms: CB   and  CG  
ROOT
ATOM    150  CA  LEU A 161     -18.031  -1.858  15.935  1.00 13.31     0.177 C 
ENDROOT
BRANCH 150 151
ATOM    151  CB  LEU A 161     -17.046  -0.706  16.001  1.00 14.13     0.038 C 
BRANCH 151 152
ATOM    152  CG  LEU A 161     -17.424   0.551  15.227  1.00 19.39    -0.020 C 
ATOM    153  CD2 LEU A 161     -16.650   1.738  15.747  1.00 27.75     0.009 C 
ATOM    154  CD1 LEU A 161     -18.902   0.791  15.381  1.00 18.59     0.009 C 
ENDBRANCH 151 152
ENDBRANCH 150 151
END_RES LEU A 161
BEGIN_RES GLN A 168
REMARK  3 active torsions:
REMARK  status: ('A' for Active; 'I' for Inactive)
REMARK   48  A    between atoms: CA   and  CB  
REMARK   49  A    between atoms: CB   and  CG  
REMARK   50  A    between atoms: CG   and  CD  
REMARK       I    between atoms: CD   and  NE2 
ROOT
ATOM    155  CA  GLN A 168     -22.035  -6.020   8.155  1.00 30.94     0.177 C 
ENDROOT
BRANCH 155 156
ATOM    156  CB  GLN A 168     -23.054  -5.218   8.946  1.00 41.76     0.044 C 
BRANCH 156 157
ATOM    157  CG  GLN A 168     -24.479  -5.406   8.500  1.00 61.20     0.105 C 
BRANCH 157 158
ATOM    158  CD  GLN A 168     -24.976  -4.229   7.684  1.00 75.49     0.215 C 
ATOM    159  NE2 GLN A 168     -25.531  -3.228   8.369  1.00 85.00    -0.370 N 
ATOM    160  H06 GLN A 168     -25.883  -2.417   7.882  1.00 85.00     0.159 HD
ATOM    161  H07 GLN A 168     -25.598  -3.282   9.376  1.00 85.00     0.159 HD
ATOM    162  OE1 GLN A 168     -24.871  -4.218   6.449  1.00 73.64    -0.274 OA
ENDBRANCH 157 158
ENDBRANCH 156 157
ENDBRANCH 155 156
END_RES GLN A 168
ENDMDL
MODEL 8
REMARK VINA RESULT:      -5.9      2.987      7.729
REMARK  Name = human_CD1d_SDS_pred.rank_0
REMARK  12 active torsions:
REMARK  status: ('A' for Active; 'I' for Inactive)
REMARK    1  A    between atoms: O_2  and  S_3
REMARK    2  A    between atoms: O_2  and  C_17
REMARK    3  A    between atoms: C_4  and  C_6
REMARK    4  A    between atoms: C_6  and  C_8
REMARK    5  A    between atoms: C_8  and  C_10
REMARK    6  A    between atoms: C_10  and  C_11
REMARK    7  A    between atoms: C_11  and  C_12
REMARK    8  A    between atoms: C_12  and  C_13
REMARK    9  A    between atoms: C_13  and  C_14
REMARK   10  A    between atoms: C_14  and  C_15
REMARK   11  A    between atoms: C_15  and  C_16
REMARK   12  A    between atoms: C_16  and  C_17
REMARK                            x       y       z     vdW  Elec       q    Type
REMARK                         _______ _______ _______ _____ _____    ______ ____
ROOT
ATOM      1  C   UNL     1      -1.602   4.901  25.642  0.00  0.00    +0.000 C 
ENDROOT
BRANCH   1   2
ATOM      2  C   UNL     1      -2.937   4.204  25.662  0.00  0.00    +0.000 C 
BRANCH   2   3
ATOM      3  C   UNL     1      -3.842   4.645  24.482  0.00  0.00    +0.000 C 
BRANCH   3   4
ATOM      4  C   UNL     1      -3.479   3.913  23.188  0.00  0.00    +0.000 C 
BRANCH   4   5
ATOM      5  C   UNL     1      -4.709   3.684  22.320  0.00  0.00    +0.000 C 
BRANCH   5   6
ATOM      6  C   UNL     1      -5.936   3.300  23.138  0.00  0.00    +0.000 C 
BRANCH   6   7
ATOM      7  C   UNL     1      -7.204   3.597  22.378  0.00  0.00    +0.000 C 
BRANCH   7   9
ATOM      8  C   UNL     1      -8.056   2.225  20.448  0.00  0.00    +0.000 C 
ATOM      9  C   UNL     1      -7.067   3.272  20.899  0.00  0.00    +0.000 C 
ENDBRANCH   7   9
ENDBRANCH   6   7
ENDBRANCH   5   6
ENDBRANCH   4   5
ENDBRANCH   3   4
ENDBRANCH   2   3
ENDBRANCH   1   2
BRANCH   1  10
ATOM     10  C   UNL     1      -0.451   3.938  25.356  0.00  0.00    +0.000 C 
BRANCH  10  11
ATOM     11  C   UNL     1       0.504   4.498  24.281  0.00  0.00    +0.000 C 
BRANCH  11  12
ATOM     12  C   UNL     1       0.075   5.886  23.851  0.00  0.00    +0.000 C 
BRANCH  12  13
ATOM     13  O   UNL     1       0.904   6.866  24.425  0.00  0.00    +0.000 OA
BRANCH  13  14
ATOM     14  S   UNL     1       0.407   8.359  24.274  0.00  0.00    +0.000 S 
ATOM     15  O   UNL     1      -1.046   8.356  24.188  0.00  0.00    +0.000 OA
ATOM     16  O   UNL     1       0.838   9.134  25.385  0.00  0.00    +0.000 OA
ATOM     17  O   UNL     1       1.009   8.883  23.001  0.00  0.00    +0.000 OA
ENDBRANCH  13  14
ENDBRANCH  12  13
ENDBRANCH  11  12
ENDBRANCH  10  11
ENDBRANCH   1  10
TORSDOF 12
BEGIN_RES LEU A  10
REMARK  2 active torsions:
REMARK  status: ('A' for Active; 'I' for Inactive)
REMARK    1  A    between atoms: CA   and  CB  
REMARK    2  A    between atoms: CB   and  CG  
ROOT
ATOM      1  CA  LEU A  10     -10.775  -4.871   5.898  1.00 25.14     0.177 C 
ENDROOT
BRANCH   1   2
ATOM      2  CB  LEU A  10     -12.191  -4.387   6.226  1.00 17.87     0.038 C 
BRANCH   2   3
ATOM      3  CG  LEU A  10     -12.422  -2.894   5.983  1.00 24.95    -0.020 C 
ATOM      4  CD2 LEU A  10     -13.680  -2.478   6.667  1.00 26.38     0.009 C 
ATOM      5  CD1 LEU A  10     -12.496  -2.591   4.496  1.00 28.12     0.009 C 
ENDBRANCH   2   3
ENDBRANCH   1   2
END_RES LEU A  10
BEGIN_RES CYS A  12
REMARK  2 active torsions:
REMARK  status: ('A' for Active; 'I' for Inactive)
REMARK    3  A    between atoms: CA   and  CB  
REMARK    4  A    between atoms: CB   and  SG  
ROOT
ATOM      6  CA  CYS A  12      -8.555   0.470   8.750  1.00 23.16     0.185 C 
ENDROOT
BRANCH   6   7
ATOM      7  CB  CYS A  12      -9.828   0.763   9.555  1.00 20.43     0.105 C 
BRANCH   7   8
ATOM      8  SG  CYS A  12     -10.947   2.015   8.855  1.00 24.64    -0.180 SA
ATOM      9  H04 CYS A  12     -10.963   1.904   7.520  1.00 24.64     0.101 HD
ENDBRANCH   7   8
ENDBRANCH   6   7
END_RES CYS A  12
BEGIN_RES GLN A  14
REMARK  3 active torsions:
REMARK  status: ('A' for Active; 'I' for Inactive)
REMARK    5  A    between atoms: CA   and  CB  
REMARK    6  A    between atoms: CB   and  CG  
REMARK    7  A    between atoms: CG   and  CD  
REMARK       I    between atoms: CD   and  NE2 
ROOT
ATOM     10  CA  GLN A  14      -4.645   5.402  11.377  1.00 10.43     0.177 C 
ENDROOT
BRANCH  10  11
ATOM     11  CB  GLN A  14      -5.541   5.549  12.608  1.00 14.45     0.044 C 
BRANCH  11  12
ATOM     12  CG  GLN A  14      -6.543   6.676  12.511  1.00 13.74     0.105 C 
BRANCH  12  13
ATOM     13  CD  GLN A  14      -5.895   8.036  12.611  1.00 16.29     0.215 C 
ATOM     14  NE2 GLN A  14      -6.435   8.998  11.895  1.00  8.57    -0.370 N 
ATOM     15  H06 GLN A  14      -6.045   9.928  11.924  1.00  8.57     0.159 HD
ATOM     16  H07 GLN A  14      -7.240   8.805  11.317  1.00  8.57     0.159 HD
ATOM     17  OE1 GLN A  14      -4.922   8.218  13.327  1.00 23.55    -0.274 OA
ENDBRANCH  12  13
ENDBRANCH  11  12
ENDBRANCH  10  11
END_RES GLN A  14
BEGIN_RES SER A  16
REMARK  2 active torsions:
REMARK  status: ('A' for Active; 'I' for Inactive)
REMARK    8  A    between atoms: CA   and  CB  
REMARK    9  A    between atoms: CB   and  OG  
ROOT
ATOM     18  CA  SER A  16      -1.305  10.019  14.282  1.00  2.34     0.200 C 
ENDROOT
BRANCH  18  19
ATOM     19  CB  SER A  16      -2.242   9.935  15.479  1.00  3.12     0.199 C 
BRANCH  19  20
ATOM     20  OG  SER A  16      -2.175   8.648  16.068  1.00  1.00    -0.398 OA
ATOM     21  H04 SER A  16      -2.891   8.547  16.699  1.00  1.00     0.209 HD
ENDBRANCH  19  20
ENDBRANCH  18  19
END_RES SER A  16
BEGIN_RES LEU A  32
REMARK  2 active torsions:
REMARK  status: ('A' for Active; 'I' for Inactive)
REMARK   10  A    between atoms: CA   and  CB  
REMARK   11  A    between atoms: CB   and  CG  
ROOT
ATOM     22  CA  LEU A  32     -10.272  -4.106   1.587  1.00 16.16     0.177 C 
ENDROOT
BRANCH  22  23
ATOM     23  CB  LEU A  32     -11.613  -3.858   0.880  1.00 12.35     0.038 C 
BRANCH  23  24
ATOM     24  CG  LEU A  32     -12.525  -5.101   0.925  1.00  9.77    -0.020 C 
ATOM     25  CD1 LEU A  32     -13.015  -5.342   2.333  1.00  4.35     0.009 C 
ATOM     26  CD2 LEU A  32     -13.700  -4.939  -0.002  1.00 10.60     0.009 C 
ENDBRANCH  23  24
ENDBRANCH  22  23
END_RES LEU A  32
BEGIN_RES HIS A  38
REMARK  2 active torsions:
REMARK  status: ('A' for Active; 'I' for Inactive)
REMARK   12  A    between atoms: CA   and  CB  
REMARK   13  A    between atoms: CB   and  CG  
ROOT
ATOM     27  CA  HIS A  38     -10.959   4.941   1.621  1.00 16.94     0.182 C 
ENDROOT
BRANCH  27  28
ATOM     28  CB  HIS A  38     -11.810   4.840   2.881  1.00 15.47     0.095 C 
BRANCH  28  29
ATOM     29  CG  HIS A  38     -12.979   3.918   2.748  1.00 18.62     0.053 A 
ATOM     30  CD2 HIS A  38     -14.129   4.037   2.042  1.00 15.06     0.116 A 
ATOM     31  NE2 HIS A  38     -14.847   2.887   2.247  1.00 18.12    -0.359 N 
ATOM     32  CE1 HIS A  38     -14.166   2.091   3.049  1.00 14.78     0.207 A 
ATOM     33  H06 HIS A  38     -15.752   2.683   1.848  1.00 18.12     0.166 HD
ATOM     34  ND1 HIS A  38     -13.035   2.689   3.367  1.00 16.58    -0.247 NA
ENDBRANCH  28  29
ENDBRANCH  27  28
END_RES HIS A  38
BEGIN_RES TRP A  63
REMARK  2 active torsions:
REMARK  status: ('A' for Active; 'I' for Inactive)
REMARK   14  A    between atoms: CA   and  CB  
REMARK   15  A    between atoms: CB   and  CG  
ROOT
ATOM     35  CA  TRP A  63     -22.437   6.257   6.543  1.00 27.04     0.181 C 
ENDROOT
BRANCH  35  36
ATOM     36  CB  TRP A  63     -22.360   6.642   5.068  1.00 31.37     0.075 C 
BRANCH  36  37
ATOM     37  CG  TRP A  63     -20.966   6.597   4.478  1.00 34.37    -0.028 A 
ATOM     38  CD2 TRP A  63     -20.266   7.664   3.824  1.00 33.79    -0.002 A 
ATOM     39  CE3 TRP A  63     -20.597   8.976   3.478  1.00 32.99     0.014 A 
ATOM     40  CE2 TRP A  63     -18.977   7.183   3.506  1.00 35.84     0.042 A 
ATOM     41  CZ3 TRP A  63     -19.647   9.756   2.834  1.00 32.93     0.001 A 
ATOM     42  CH2 TRP A  63     -18.374   9.249   2.530  1.00 39.24     0.002 A 
ATOM     43  CZ2 TRP A  63     -18.021   7.967   2.858  1.00 37.99     0.030 A 
ATOM     44  NE1 TRP A  63     -18.904   5.889   3.944  1.00 37.98    -0.365 N 
ATOM     45  H06 TRP A  63     -18.101   5.284   3.856  1.00 37.98     0.165 HD
ATOM     46  CD1 TRP A  63     -20.103   5.548   4.523  1.00 38.16     0.096 A 
ENDBRANCH  36  37
ENDBRANCH  35  36
END_RES TRP A  63
BEGIN_RES LEU A  66
REMARK  2 active torsions:
REMARK  status: ('A' for Active; 'I' for Inactive)
REMARK   16  A    between atoms: CA   and  CB  
REMARK   17  A    between atoms: CB   and  CG  
ROOT
ATOM     47  CA  LEU A  66     -20.004   6.489  11.120  1.00 10.90     0.177 C 
ENDROOT
BRANCH  47  48
ATOM     48  CB  LEU A  66     -19.626   5.453  10.069  1.00 13.57     0.038 C 
BRANCH  48  49
ATOM     49  CG  LEU A  66     -19.383   4.023  10.552  1.00  8.73    -0.020 C 
ATOM     50  CD1 LEU A  66     -19.241   3.986  12.051  1.00 14.23     0.009 C 
ATOM     51  CD2 LEU A  66     -20.549   3.170  10.121  1.00  1.92     0.009 C 
ENDBRANCH  48  49
ENDBRANCH  47  48
END_RES LEU A  66
BEGIN_RES PHE A  70
REMARK  2 active torsions:
REMARK  status: ('A' for Active; 'I' for Inactive)
REMARK   18  A    between atoms: CA   and  CB  
REMARK   19  A    between atoms: CB   and  CG  
ROOT
ATOM     52  CA  PHE A  70     -14.974   9.434  13.165  1.00  8.78     0.180 C 
ENDROOT
BRANCH  52  53
ATOM     53  CB  PHE A  70     -14.707   9.132  11.681  1.00  6.33     0.073 C 
BRANCH  53  54
ATOM     54  CG  PHE A  70     -13.935   7.860  11.459  1.00  3.42    -0.056 A 
ATOM     55  CD1 PHE A  70     -13.698   7.381  10.179  1.00 13.88     0.007 A 
ATOM     56  CE1 PHE A  70     -13.016   6.167   9.980  1.00 12.71     0.001 A 
ATOM     57  CZ  PHE A  70     -12.568   5.427  11.074  1.00  4.21     0.000 A 
ATOM     58  CE2 PHE A  70     -12.796   5.895  12.355  1.00  2.83     0.001 A 
ATOM     59  CD2 PHE A  70     -13.478   7.110  12.543  1.00  1.00     0.007 A 
ENDBRANCH  53  54
ENDBRANCH  52  53
END_RES PHE A  70
BEGIN_RES TYR A  73
REMARK  3 active torsions:
REMARK  status: ('A' for Active; 'I' for Inactive)
REMARK   20  A    between atoms: CA   and  CB  
REMARK   21  A    between atoms: CB   and  CG  
REMARK   22  A    between atoms: CZ   and  OH  
ROOT
ATOM     60  CA  TYR A  73     -13.212  10.166  17.260  1.00 12.17     0.180 C 
ENDROOT
BRANCH  60  61
ATOM     61  CB  TYR A  73     -13.301   8.846  16.517  1.00 12.84     0.073 C 
BRANCH  61  62
ATOM     62  CG  TYR A  73     -13.284   7.664  17.422  1.00 15.89    -0.056 A 
ATOM     63  CD1 TYR A  73     -13.429   6.387  16.928  1.00 16.00     0.010 A 
ATOM     64  CE1 TYR A  73     -13.444   5.281  17.777  1.00 13.55     0.037 A 
ATOM     65  CZ  TYR A  73     -13.313   5.471  19.138  1.00 18.13     0.065 A 
ATOM     66  CE2 TYR A  73     -13.166   6.736  19.658  1.00 15.89     0.037 A 
ATOM     67  CD2 TYR A  73     -13.152   7.827  18.797  1.00 21.86     0.010 A 
BRANCH  65  68
ATOM     68  OH  TYR A  73     -13.320   4.396  19.993  1.00 12.12    -0.361 OA
ATOM     69  H08 TYR A  73     -14.219   4.218  20.277  1.00 12.12     0.217 HD
ENDBRANCH  65  68
ENDBRANCH  61  62
ENDBRANCH  60  61
END_RES TYR A  73
BEGIN_RES PHE A  77
REMARK  2 active torsions:
REMARK  status: ('A' for Active; 'I' for Inactive)
REMARK   23  A    between atoms: CA   and  CB  
REMARK   24  A    between atoms: CB   and  CG  
ROOT
ATOM     70  CA  PHE A  77      -8.400  10.581  20.110  1.00 17.17     0.180 C 
ENDROOT
BRANCH  70  71
ATOM     71  CB  PHE A  77      -8.228   9.750  18.851  1.00 10.44     0.073 C 
BRANCH  71  72
ATOM     72  CG  PHE A  77      -8.725   8.345  18.984  1.00  6.07    -0.056 A 
ATOM     73  CD2 PHE A  77      -9.306   7.704  17.913  1.00  9.61     0.007 A 
ATOM     74  CE2 PHE A  77      -9.769   6.398  18.027  1.00  1.00     0.001 A 
ATOM     75  CZ  PHE A  77      -9.644   5.723  19.230  1.00  1.92     0.000 A 
ATOM     76  CE1 PHE A  77      -9.063   6.349  20.309  1.00  9.25     0.001 A 
ATOM     77  CD1 PHE A  77      -8.605   7.660  20.182  1.00  9.63     0.007 A 
ENDBRANCH  71  72
ENDBRANCH  70  71
END_RES PHE A  77
BEGIN_RES LEU A  96
REMARK  2 active torsions:
REMARK  status: ('A' for Active; 'I' for Inactive)
REMARK   25  A    between atoms: CA   and  CB  
REMARK   26  A    between atoms: CB   and  CG  
ROOT
ATOM     78  CA  LEU A  96       0.717   6.481  17.359  1.00 16.08     0.177 C 
ENDROOT
BRANCH  78  79
ATOM     79  CB  LEU A  96      -0.370   7.101  18.230  1.00 18.83     0.038 C 
BRANCH  79  80
ATOM     80  CG  LEU A  96      -0.148   6.938  19.734  1.00 19.03    -0.020 C 
ATOM     81  CD1 LEU A  96      -1.396   7.382  20.461  1.00 28.17     0.009 C 
ATOM     82  CD2 LEU A  96       0.114   5.490  20.074  1.00 22.01     0.009 C 
ENDBRANCH  79  80
ENDBRANCH  78  79
END_RES LEU A  96
BEGIN_RES VAL A  98
REMARK  1 active torsions:
REMARK  status: ('A' for Active; 'I' for Inactive)
REMARK   27  A    between atoms: CA   and  CB  
ROOT
ATOM     83  CA  VAL A  98      -3.928   2.082  14.897  1.00 19.83     0.180 C 
ENDROOT
BRANCH  83  84
ATOM     84  CB  VAL A  98      -5.203   2.807  15.281  1.00 17.87     0.009 C 
ATOM     85  CG2 VAL A  98      -4.920   4.271  15.499  1.00 29.90     0.012 C 
ATOM     86  CG1 VAL A  98      -5.785   2.180  16.530  1.00 14.79     0.012 C 
ENDBRANCH  83  84
END_RES VAL A  98
BEGIN_RES ASN A 112
REMARK  2 active torsions:
REMARK  status: ('A' for Active; 'I' for Inactive)
REMARK   28  A    between atoms: CA   and  CB  
REMARK   29  A    between atoms: CB   and  CG  
REMARK       I    between atoms: CG   and  ND2 
ROOT
ATOM     87  CA  ASN A 112     -11.790  -8.793  14.069  1.00 37.70     0.185 C 
ENDROOT
BRANCH  87  88
ATOM     88  CB  ASN A 112     -12.992  -7.945  14.465  1.00 26.24     0.137 C 
BRANCH  88  89
ATOM     89  CG  ASN A 112     -13.816  -8.565  15.571  1.00 21.77     0.217 C 
ATOM     90  ND2 ASN A 112     -14.966  -9.128  15.202  1.00  9.31    -0.370 N 
ATOM     91  H04 ASN A 112     -15.563  -9.558  15.895  1.00  9.31     0.159 HD
ATOM     92  H05 ASN A 112     -15.241  -9.125  14.230  1.00  9.31     0.159 HD
ATOM     93  OD1 ASN A 112     -13.429  -8.536  16.745  1.00 21.61    -0.274 OA
ENDBRANCH  88  89
ENDBRANCH  87  88
END_RES ASN A 112
BEGIN_RES PHE A 114
REMARK  2 active torsions:
REMARK  status: ('A' for Active; 'I' for Inactive)
REMARK   30  A    between atoms: CA   and  CB  
REMARK   31  A    between atoms: CB   and  CG  
ROOT
ATOM     94  CA  PHE A 114      -7.754  -3.619  17.012  1.00 26.06     0.180 C 
ENDROOT
BRANCH  94  95
ATOM     95  CB  PHE A 114      -8.890  -3.080  17.867  1.00 19.95     0.073 C 
BRANCH  95  96
ATOM     96  CG  PHE A 114      -9.219  -1.650  17.582  1.00 17.65    -0.056 A 
ATOM     97  CD1 PHE A 114      -8.210  -0.706  17.419  1.00 13.01     0.007 A 
ATOM     98  CE1 PHE A 114      -8.515   0.628  17.183  1.00  6.74     0.001 A 
ATOM     99  CZ  PHE A 114      -9.843   1.036  17.104  1.00  6.27     0.000 A 
ATOM    100  CE2 PHE A 114     -10.856   0.105  17.263  1.00 17.36     0.001 A 
ATOM    101  CD2 PHE A 114     -10.541  -1.237  17.502  1.00 18.39     0.007 A 
ENDBRANCH  95  96
ENDBRANCH  94  95
END_RES PHE A 114
BEGIN_RES VAL A 116
REMARK  1 active torsions:
REMARK  status: ('A' for Active; 'I' for Inactive)
REMARK   32  A    between atoms: CA   and  CB  
ROOT
ATOM    102  CA  VAL A 116      -2.467   0.283  18.565  1.00 13.48     0.180 C 
ENDROOT
BRANCH 102 103
ATOM    103  CB  VAL A 116      -3.101   1.238  19.599  1.00 20.86     0.009 C 
ATOM    104  CG1 VAL A 116      -3.069   2.671  19.060  1.00 25.01     0.012 C 
ATOM    105  CG2 VAL A 116      -4.507   0.804  19.942  1.00 25.34     0.012 C 
ENDBRANCH 102 103
END_RES VAL A 116
BEGIN_RES ILE A 123
REMARK  2 active torsions:
REMARK  status: ('A' for Active; 'I' for Inactive)
REMARK   33  A    between atoms: CA   and  CB  
REMARK   34  A    between atoms: CB   and  CG1 
ROOT
ATOM    106  CA  ILE A 123       1.557  -1.626  23.222  1.00 15.07     0.180 C 
ENDROOT
BRANCH 106 107
ATOM    107  CB  ILE A 123       1.697  -0.112  23.461  1.00 14.41     0.013 C 
ATOM    108  CG2 ILE A 123       3.086   0.202  23.989  1.00 18.35     0.012 C 
BRANCH 107 109
ATOM    109  CG1 ILE A 123       1.439   0.655  22.167  1.00 15.23     0.002 C 
ATOM    110  CD1 ILE A 123       0.177   1.483  22.195  1.00 14.67     0.005 C 
ENDBRANCH 107 109
ENDBRANCH 106 107
END_RES ILE A 123
BEGIN_RES LEU A 124
REMARK  2 active torsions:
REMARK  status: ('A' for Active; 'I' for Inactive)
REMARK   35  A    between atoms: CA   and  CB  
REMARK   36  A    between atoms: CB   and  CG  
ROOT
ATOM    111  CA  LEU A 124      -2.057  -2.686  23.524  1.00 11.86     0.177 C 
ENDROOT
BRANCH 111 112
ATOM    112  CB  LEU A 124      -2.698  -1.652  24.429  1.00 14.60     0.038 C 
BRANCH 112 113
ATOM    113  CG  LEU A 124      -2.653  -0.257  23.824  1.00 16.19    -0.020 C 
ATOM    114  CD1 LEU A 124      -4.084   0.175  23.451  1.00 22.07     0.009 C 
ATOM    115  CD2 LEU A 124      -2.016   0.696  24.805  1.00  9.12     0.009 C 
ENDBRANCH 112 113
ENDBRANCH 111 112
END_RES LEU A 124
BEGIN_RES PHE A 126
REMARK  2 active torsions:
REMARK  status: ('A' for Active; 'I' for Inactive)
REMARK   37  A    between atoms: CA   and  CB  
REMARK   38  A    between atoms: CB   and  CG  
ROOT
ATOM    116  CA  PHE A 126      -8.784  -4.792  22.233  1.00 23.15     0.180 C 
ENDROOT
BRANCH 116 117
ATOM    117  CB  PHE A 126      -9.823  -4.011  21.461  1.00 20.65     0.073 C 
BRANCH 117 118
ATOM    118  CG  PHE A 126     -10.946  -3.537  22.298  1.00 23.65    -0.056 A 
ATOM    119  CD2 PHE A 126     -10.757  -2.532  23.230  1.00 36.63     0.007 A 
ATOM    120  CE2 PHE A 126     -11.823  -2.083  24.022  1.00 36.27     0.001 A 
ATOM    121  CZ  PHE A 126     -13.080  -2.649  23.874  1.00 18.06     0.000 A 
ATOM    122  CE1 PHE A 126     -13.274  -3.650  22.943  1.00  5.50     0.001 A 
ATOM    123  CD1 PHE A 126     -12.208  -4.089  22.157  1.00 15.29     0.007 A 
ENDBRANCH 117 118
ENDBRANCH 116 117
END_RES PHE A 126
BEGIN_RES TRP A 131
REMARK  2 active torsions:
REMARK  status: ('A' for Active; 'I' for Inactive)
REMARK   39  A    between atoms: CA   and  CB  
REMARK   40  A    between atoms: CB   and  CG  
ROOT
ATOM    124  CA  TRP A 131      -8.096  -3.335  26.542  1.00 14.52     0.181 C 
ENDROOT
BRANCH 124 125
ATOM    125  CB  TRP A 131      -7.651  -1.877  26.607  1.00 13.06     0.075 C 
BRANCH 125 126
ATOM    126  CG  TRP A 131      -8.029  -1.057  25.393  1.00 16.97    -0.028 A 
ATOM    127  CD2 TRP A 131      -9.091  -0.103  25.306  1.00 11.34    -0.002 A 
ATOM    128  CE2 TRP A 131      -9.079   0.425  24.000  1.00  5.87     0.042 A 
ATOM    129  CE3 TRP A 131     -10.054   0.355  26.212  1.00  3.80     0.014 A 
ATOM    130  CZ2 TRP A 131      -9.992   1.392  23.578  1.00  1.35     0.030 A 
ATOM    131  NE1 TRP A 131      -8.058  -0.181  23.321  1.00 13.90    -0.365 N 
ATOM    132  CH2 TRP A 131     -10.925   1.825  24.487  1.00  1.00     0.002 A 
ATOM    133  CZ3 TRP A 131     -10.963   1.312  25.798  1.00  1.00     0.001 A 
ATOM    134  CD1 TRP A 131      -7.430  -1.069  24.163  1.00 17.22     0.096 A 
ATOM    135  H07 TRP A 131      -7.805  -0.004  22.359  1.00 13.90     0.165 HD
ENDBRANCH 125 126
ENDBRANCH 124 125
END_RES TRP A 131
BEGIN_RES LEU A 148
REMARK  2 active torsions:
REMARK  status: ('A' for Active; 'I' for Inactive)
REMARK   41  A    between atoms: CA   and  CB  
REMARK   42  A    between atoms: CB   and  CG  
ROOT
ATOM    136  CA  LEU A 148      -9.018   3.259  29.295  1.00 16.99     0.177 C 
ENDROOT
BRANCH 136 137
ATOM    137  CB  LEU A 148      -8.166   2.574  28.236  1.00  6.39     0.038 C 
BRANCH 137 138
ATOM    138  CG  LEU A 148      -7.333   3.380  27.260  1.00  1.00    -0.020 C 
ATOM    139  CD2 LEU A 148      -8.162   3.781  26.075  1.00  1.00     0.009 C 
ATOM    140  CD1 LEU A 148      -6.155   2.529  26.825  1.00  2.71     0.009 C 
ENDBRANCH 137 138
ENDBRANCH 136 137
END_RES LEU A 148
BEGIN_RES THR A 154
REMARK  2 active torsions:
REMARK  status: ('A' for Active; 'I' for Inactive)
REMARK   43  A    between atoms: CA   and  CB  
REMARK   44  A    between atoms: CB   and  OG1 
ROOT
ATOM    141  CA  THR A 154     -15.990   3.959  24.426  1.00 20.45     0.205 C 
ENDROOT
BRANCH 141 142
ATOM    142  CB  THR A 154     -14.777   4.829  24.694  1.00 16.79     0.146 C 
ATOM    143  CG2 THR A 154     -13.672   4.505  23.707  1.00 20.24     0.042 C 
BRANCH 142 144
ATOM    144  OG1 THR A 154     -15.148   6.204  24.538  1.00 18.84    -0.393 OA
ATOM    145  H06 THR A 154     -14.631   6.597  23.831  1.00 18.84     0.210 HD
ENDBRANCH 142 144
ENDBRANCH 141 142
END_RES THR A 154
BEGIN_RES VAL A 158
REMARK  1 active torsions:
REMARK  status: ('A' for Active; 'I' for Inactive)
REMARK   45  A    between atoms: CA   and  CB  
ROOT
ATOM    146  CA  VAL A 158     -15.487  -0.189  19.892  1.00 15.49     0.180 C 
ENDROOT
BRANCH 146 147
ATOM    147  CB  VAL A 158     -14.291  -0.273  20.822  1.00  6.52     0.009 C 
ATOM    148  CG1 VAL A 158     -13.243  -1.212  20.269  1.00  1.00     0.012 C 
ATOM    149  CG2 VAL A 158     -13.727   1.102  21.004  1.00  5.99     0.012 C 
ENDBRANCH 146 147
END_RES VAL A 158
BEGIN_RES LEU A 161
REMARK  2 active torsions:
REMARK  status: ('A' for Active; 'I' for Inactive)
REMARK   46  A    between atoms: CA   and  CB  
REMARK   47  A    between atoms: CB   and  CG  
ROOT
ATOM    150  CA  LEU A 161     -18.031  -1.858  15.935  1.00 13.31     0.177 C 
ENDROOT
BRANCH 150 151
ATOM    151  CB  LEU A 161     -17.046  -0.706  16.001  1.00 14.13     0.038 C 
BRANCH 151 152
ATOM    152  CG  LEU A 161     -17.463   0.580  15.298  1.00 19.39    -0.020 C 
ATOM    153  CD2 LEU A 161     -16.803   1.770  15.951  1.00 27.75     0.009 C 
ATOM    154  CD1 LEU A 161     -18.960   0.713  15.377  1.00 18.59     0.009 C 
ENDBRANCH 151 152
ENDBRANCH 150 151
END_RES LEU A 161
BEGIN_RES GLN A 168
REMARK  3 active torsions:
REMARK  status: ('A' for Active; 'I' for Inactive)
REMARK   48  A    between atoms: CA   and  CB  
REMARK   49  A    between atoms: CB   and  CG  
REMARK   50  A    between atoms: CG   and  CD  
REMARK       I    between atoms: CD   and  NE2 
ROOT
ATOM    155  CA  GLN A 168     -22.035  -6.020   8.155  1.00 30.94     0.177 C 
ENDROOT
BRANCH 155 156
ATOM    156  CB  GLN A 168     -23.054  -5.218   8.946  1.00 41.76     0.044 C 
BRANCH 156 157
ATOM    157  CG  GLN A 168     -24.480  -5.417   8.509  1.00 61.20     0.105 C 
BRANCH 157 158
ATOM    158  CD  GLN A 168     -24.973  -4.268   7.650  1.00 75.49     0.215 C 
ATOM    159  NE2 GLN A 168     -24.791  -4.395   6.334  1.00 85.00    -0.370 N 
ATOM    160  H06 GLN A 168     -25.096  -3.662   5.709  1.00 85.00     0.159 HD
ATOM    161  H07 GLN A 168     -24.348  -5.224   5.963  1.00 85.00     0.159 HD
ATOM    162  OE1 GLN A 168     -25.507  -3.273   8.159  1.00 73.64    -0.274 OA
ENDBRANCH 157 158
ENDBRANCH 156 157
ENDBRANCH 155 156
END_RES GLN A 168
ENDMDL
MODEL 9
REMARK VINA RESULT:      -5.9      1.686      2.438
REMARK  Name = human_CD1d_SDS_pred.rank_0
REMARK  12 active torsions:
REMARK  status: ('A' for Active; 'I' for Inactive)
REMARK    1  A    between atoms: O_2  and  S_3
REMARK    2  A    between atoms: O_2  and  C_17
REMARK    3  A    between atoms: C_4  and  C_6
REMARK    4  A    between atoms: C_6  and  C_8
REMARK    5  A    between atoms: C_8  and  C_10
REMARK    6  A    between atoms: C_10  and  C_11
REMARK    7  A    between atoms: C_11  and  C_12
REMARK    8  A    between atoms: C_12  and  C_13
REMARK    9  A    between atoms: C_13  and  C_14
REMARK   10  A    between atoms: C_14  and  C_15
REMARK   11  A    between atoms: C_15  and  C_16
REMARK   12  A    between atoms: C_16  and  C_17
REMARK                            x       y       z     vdW  Elec       q    Type
REMARK                         _______ _______ _______ _____ _____    ______ ____
ROOT
ATOM      1  C   UNL     1     -14.575   2.742  15.185  0.00  0.00    +0.000 C 
ENDROOT
BRANCH   1   2
ATOM      2  C   UNL     1     -15.104   3.921  14.410  0.00  0.00    +0.000 C 
BRANCH   2   3
ATOM      3  C   UNL     1     -15.985   3.483  13.212  0.00  0.00    +0.000 C 
BRANCH   3   4
ATOM      4  C   UNL     1     -16.176   4.620  12.206  0.00  0.00    +0.000 C 
BRANCH   4   5
ATOM      5  C   UNL     1     -15.924   4.146  10.781  0.00  0.00    +0.000 C 
BRANCH   5   6
ATOM      6  C   UNL     1     -16.251   5.214   9.745  0.00  0.00    +0.000 C 
BRANCH   6   7
ATOM      7  C   UNL     1     -15.956   4.721   8.352  0.00  0.00    +0.000 C 
BRANCH   7   9
ATOM      8  C   UNL     1     -16.782   6.870   7.338  0.00  0.00    +0.000 C 
ATOM      9  C   UNL     1     -15.659   5.864   7.396  0.00  0.00    +0.000 C 
ENDBRANCH   7   9
ENDBRANCH   6   7
ENDBRANCH   5   6
ENDBRANCH   4   5
ENDBRANCH   3   4
ENDBRANCH   2   3
ENDBRANCH   1   2
BRANCH   1  10
ATOM     10  C   UNL     1     -13.050   2.744  15.269  0.00  0.00    +0.000 C 
BRANCH  10  11
ATOM     11  C   UNL     1     -12.405   2.458  13.897  0.00  0.00    +0.000 C 
BRANCH  11  12
ATOM     12  C   UNL     1     -10.932   2.813  13.911  0.00  0.00    +0.000 C 
BRANCH  12  13
ATOM     13  O   UNL     1     -10.724   4.064  14.521  0.00  0.00    +0.000 OA
BRANCH  13  14
ATOM     14  S   UNL     1      -9.512   4.907  13.959  0.00  0.00    +0.000 S 
ATOM     15  O   UNL     1      -9.347   4.596  12.547  0.00  0.00    +0.000 OA
ATOM     16  O   UNL     1      -9.757   6.296  14.137  0.00  0.00    +0.000 OA
ATOM     17  O   UNL     1      -8.298   4.482  14.736  0.00  0.00    +0.000 OA
ENDBRANCH  13  14
ENDBRANCH  12  13
ENDBRANCH  11  12
ENDBRANCH  10  11
ENDBRANCH   1  10
TORSDOF 12
BEGIN_RES LEU A  10
REMARK  2 active torsions:
REMARK  status: ('A' for Active; 'I' for Inactive)
REMARK    1  A    between atoms: CA   and  CB  
REMARK    2  A    between atoms: CB   and  CG  
ROOT
ATOM      1  CA  LEU A  10     -10.775  -4.871   5.898  1.00 25.14     0.177 C 
ENDROOT
BRANCH   1   2
ATOM      2  CB  LEU A  10     -12.191  -4.387   6.226  1.00 17.87     0.038 C 
BRANCH   2   3
ATOM      3  CG  LEU A  10     -12.425  -2.896   5.972  1.00 24.95    -0.020 C 
ATOM      4  CD2 LEU A  10     -13.662  -2.469   6.688  1.00 26.38     0.009 C 
ATOM      5  CD1 LEU A  10     -12.542  -2.611   4.485  1.00 28.12     0.009 C 
ENDBRANCH   2   3
ENDBRANCH   1   2
END_RES LEU A  10
BEGIN_RES CYS A  12
REMARK  2 active torsions:
REMARK  status: ('A' for Active; 'I' for Inactive)
REMARK    3  A    between atoms: CA   and  CB  
REMARK    4  A    between atoms: CB   and  SG  
ROOT
ATOM      6  CA  CYS A  12      -8.555   0.470   8.750  1.00 23.16     0.185 C 
ENDROOT
BRANCH   6   7
ATOM      7  CB  CYS A  12      -9.828   0.763   9.555  1.00 20.43     0.105 C 
BRANCH   7   8
ATOM      8  SG  CYS A  12     -10.931   2.038   8.872  1.00 24.64    -0.180 SA
ATOM      9  H04 CYS A  12     -10.259   3.190   8.746  1.00 24.64     0.101 HD
ENDBRANCH   7   8
ENDBRANCH   6   7
END_RES CYS A  12
BEGIN_RES GLN A  14
REMARK  3 active torsions:
REMARK  status: ('A' for Active; 'I' for Inactive)
REMARK    5  A    between atoms: CA   and  CB  
REMARK    6  A    between atoms: CB   and  CG  
REMARK    7  A    between atoms: CG   and  CD  
REMARK       I    between atoms: CD   and  NE2 
ROOT
ATOM     10  CA  GLN A  14      -4.645   5.402  11.377  1.00 10.43     0.177 C 
ENDROOT
BRANCH  10  11
ATOM     11  CB  GLN A  14      -5.541   5.549  12.608  1.00 14.45     0.044 C 
BRANCH  11  12
ATOM     12  CG  GLN A  14      -6.537   6.682  12.515  1.00 13.74     0.105 C 
BRANCH  12  13
ATOM     13  CD  GLN A  14      -6.399   7.666  13.652  1.00 16.29     0.215 C 
ATOM     14  NE2 GLN A  14      -6.836   7.269  14.827  1.00  8.57    -0.370 N 
ATOM     15  H06 GLN A  14      -6.769   7.885  15.625  1.00  8.57     0.159 HD
ATOM     16  H07 GLN A  14      -7.239   6.349  14.932  1.00  8.57     0.159 HD
ATOM     17  OE1 GLN A  14      -5.902   8.768  13.475  1.00 23.55    -0.274 OA
ENDBRANCH  12  13
ENDBRANCH  11  12
ENDBRANCH  10  11
END_RES GLN A  14
BEGIN_RES SER A  16
REMARK  2 active torsions:
REMARK  status: ('A' for Active; 'I' for Inactive)
REMARK    8  A    between atoms: CA   and  CB  
REMARK    9  A    between atoms: CB   and  OG  
ROOT
ATOM     18  CA  SER A  16      -1.305  10.019  14.282  1.00  2.34     0.200 C 
ENDROOT
BRANCH  18  19
ATOM     19  CB  SER A  16      -2.242   9.935  15.479  1.00  3.12     0.199 C 
BRANCH  19  20
ATOM     20  OG  SER A  16      -3.469   9.335  15.103  1.00  1.00    -0.398 OA
ATOM     21  H04 SER A  16      -3.317   8.719  14.383  1.00  1.00     0.209 HD
ENDBRANCH  19  20
ENDBRANCH  18  19
END_RES SER A  16
BEGIN_RES LEU A  32
REMARK  2 active torsions:
REMARK  status: ('A' for Active; 'I' for Inactive)
REMARK   10  A    between atoms: CA   and  CB  
REMARK   11  A    between atoms: CB   and  CG  
ROOT
ATOM     22  CA  LEU A  32     -10.272  -4.106   1.587  1.00 16.16     0.177 C 
ENDROOT
BRANCH  22  23
ATOM     23  CB  LEU A  32     -11.613  -3.858   0.880  1.00 12.35     0.038 C 
BRANCH  23  24
ATOM     24  CG  LEU A  32     -12.513  -5.111   0.899  1.00  9.77    -0.020 C 
ATOM     25  CD1 LEU A  32     -13.010  -5.378   2.300  1.00  4.35     0.009 C 
ATOM     26  CD2 LEU A  32     -13.684  -4.945  -0.033  1.00 10.60     0.009 C 
ENDBRANCH  23  24
ENDBRANCH  22  23
END_RES LEU A  32
BEGIN_RES HIS A  38
REMARK  2 active torsions:
REMARK  status: ('A' for Active; 'I' for Inactive)
REMARK   12  A    between atoms: CA   and  CB  
REMARK   13  A    between atoms: CB   and  CG  
ROOT
ATOM     27  CA  HIS A  38     -10.959   4.941   1.621  1.00 16.94     0.182 C 
ENDROOT
BRANCH  27  28
ATOM     28  CB  HIS A  38     -11.810   4.840   2.881  1.00 15.47     0.095 C 
BRANCH  28  29
ATOM     29  CG  HIS A  38     -13.007   3.957   2.732  1.00 18.62     0.053 A 
ATOM     30  CD2 HIS A  38     -14.172   4.145   2.067  1.00 15.06     0.116 A 
ATOM     31  NE2 HIS A  38     -14.916   3.004   2.230  1.00 18.12    -0.359 N 
ATOM     32  CE1 HIS A  38     -14.235   2.148   2.968  1.00 14.78     0.207 A 
ATOM     33  H06 HIS A  38     -15.837   2.845   1.847  1.00 18.12     0.166 HD
ATOM     34  ND1 HIS A  38     -13.080   2.698   3.286  1.00 16.58    -0.247 NA
ENDBRANCH  28  29
ENDBRANCH  27  28
END_RES HIS A  38
BEGIN_RES TRP A  63
REMARK  2 active torsions:
REMARK  status: ('A' for Active; 'I' for Inactive)
REMARK   14  A    between atoms: CA   and  CB  
REMARK   15  A    between atoms: CB   and  CG  
ROOT
ATOM     35  CA  TRP A  63     -22.437   6.257   6.543  1.00 27.04     0.181 C 
ENDROOT
BRANCH  35  36
ATOM     36  CB  TRP A  63     -22.360   6.642   5.068  1.00 31.37     0.075 C 
BRANCH  36  37
ATOM     37  CG  TRP A  63     -20.953   6.755   4.520  1.00 34.37    -0.028 A 
ATOM     38  CD2 TRP A  63     -19.887   5.806   4.664  1.00 33.79    -0.002 A 
ATOM     39  CE3 TRP A  63     -19.752   4.590   5.338  1.00 32.99     0.014 A 
ATOM     40  CE2 TRP A  63     -18.787   6.300   3.929  1.00 35.84     0.042 A 
ATOM     41  CZ3 TRP A  63     -18.542   3.915   5.261  1.00 32.93     0.001 A 
ATOM     42  CH2 TRP A  63     -17.466   4.433   4.522  1.00 39.24     0.002 A 
ATOM     43  CZ2 TRP A  63     -17.570   5.621   3.850  1.00 37.99     0.030 A 
ATOM     44  NE1 TRP A  63     -19.170   7.488   3.371  1.00 37.98    -0.365 N 
ATOM     45  H06 TRP A  63     -18.592   8.076   2.787  1.00 37.98     0.165 HD
ATOM     46  CD1 TRP A  63     -20.469   7.752   3.733  1.00 38.16     0.096 A 
ENDBRANCH  36  37
ENDBRANCH  35  36
END_RES TRP A  63
BEGIN_RES LEU A  66
REMARK  2 active torsions:
REMARK  status: ('A' for Active; 'I' for Inactive)
REMARK   16  A    between atoms: CA   and  CB  
REMARK   17  A    between atoms: CB   and  CG  
ROOT
ATOM     47  CA  LEU A  66     -20.004   6.489  11.120  1.00 10.90     0.177 C 
ENDROOT
BRANCH  47  48
ATOM     48  CB  LEU A  66     -19.626   5.453  10.069  1.00 13.57     0.038 C 
BRANCH  48  49
ATOM     49  CG  LEU A  66     -19.574   3.992  10.514  1.00  8.73    -0.020 C 
ATOM     50  CD1 LEU A  66     -19.738   3.886  12.008  1.00 14.23     0.009 C 
ATOM     51  CD2 LEU A  66     -20.679   3.241   9.817  1.00  1.92     0.009 C 
ENDBRANCH  48  49
ENDBRANCH  47  48
END_RES LEU A  66
BEGIN_RES PHE A  70
REMARK  2 active torsions:
REMARK  status: ('A' for Active; 'I' for Inactive)
REMARK   18  A    between atoms: CA   and  CB  
REMARK   19  A    between atoms: CB   and  CG  
ROOT
ATOM     52  CA  PHE A  70     -14.974   9.434  13.165  1.00  8.78     0.180 C 
ENDROOT
BRANCH  52  53
ATOM     53  CB  PHE A  70     -14.707   9.132  11.681  1.00  6.33     0.073 C 
BRANCH  53  54
ATOM     54  CG  PHE A  70     -13.953   7.849  11.458  1.00  3.42    -0.056 A 
ATOM     55  CD1 PHE A  70     -13.523   7.077  12.526  1.00 13.88     0.007 A 
ATOM     56  CE1 PHE A  70     -12.778   5.904  12.311  1.00 12.71     0.001 A 
ATOM     57  CZ  PHE A  70     -12.462   5.501  11.014  1.00  4.21     0.000 A 
ATOM     58  CE2 PHE A  70     -12.887   6.262   9.940  1.00  2.83     0.001 A 
ATOM     59  CD2 PHE A  70     -13.631   7.433  10.166  1.00  1.00     0.007 A 
ENDBRANCH  53  54
ENDBRANCH  52  53
END_RES PHE A  70
BEGIN_RES TYR A  73
REMARK  3 active torsions:
REMARK  status: ('A' for Active; 'I' for Inactive)
REMARK   20  A    between atoms: CA   and  CB  
REMARK   21  A    between atoms: CB   and  CG  
REMARK   22  A    between atoms: CZ   and  OH  
ROOT
ATOM     60  CA  TYR A  73     -13.212  10.166  17.260  1.00 12.17     0.180 C 
ENDROOT
BRANCH  60  61
ATOM     61  CB  TYR A  73     -13.301   8.846  16.517  1.00 12.84     0.073 C 
BRANCH  61  62
ATOM     62  CG  TYR A  73     -13.521   7.682  17.419  1.00 15.89    -0.056 A 
ATOM     63  CD1 TYR A  73     -13.327   7.790  18.779  1.00 16.00     0.010 A 
ATOM     64  CE1 TYR A  73     -13.502   6.693  19.622  1.00 13.55     0.037 A 
ATOM     65  CZ  TYR A  73     -13.875   5.478  19.083  1.00 18.13     0.065 A 
ATOM     66  CE2 TYR A  73     -14.076   5.344  17.729  1.00 15.89     0.037 A 
ATOM     67  CD2 TYR A  73     -13.898   6.447  16.904  1.00 21.86     0.010 A 
BRANCH  65  68
ATOM     68  OH  TYR A  73     -14.059   4.386  19.895  1.00 12.12    -0.361 OA
ATOM     69  H08 TYR A  73     -14.445   4.668  20.729  1.00 12.12     0.217 HD
ENDBRANCH  65  68
ENDBRANCH  61  62
ENDBRANCH  60  61
END_RES TYR A  73
BEGIN_RES PHE A  77
REMARK  2 active torsions:
REMARK  status: ('A' for Active; 'I' for Inactive)
REMARK   23  A    between atoms: CA   and  CB  
REMARK   24  A    between atoms: CB   and  CG  
ROOT
ATOM     70  CA  PHE A  77      -8.400  10.581  20.110  1.00 17.17     0.180 C 
ENDROOT
BRANCH  70  71
ATOM     71  CB  PHE A  77      -8.228   9.750  18.851  1.00 10.44     0.073 C 
BRANCH  71  72
ATOM     72  CG  PHE A  77      -7.118   8.749  18.936  1.00  6.07    -0.056 A 
ATOM     73  CD2 PHE A  77      -6.041   8.826  18.083  1.00  9.61     0.007 A 
ATOM     74  CE2 PHE A  77      -5.005   7.902  18.156  1.00  1.00     0.001 A 
ATOM     75  CZ  PHE A  77      -5.048   6.889  19.098  1.00  1.92     0.000 A 
ATOM     76  CE1 PHE A  77      -6.117   6.799  19.960  1.00  9.25     0.001 A 
ATOM     77  CD1 PHE A  77      -7.151   7.732  19.875  1.00  9.63     0.007 A 
ENDBRANCH  71  72
ENDBRANCH  70  71
END_RES PHE A  77
BEGIN_RES LEU A  96
REMARK  2 active torsions:
REMARK  status: ('A' for Active; 'I' for Inactive)
REMARK   25  A    between atoms: CA   and  CB  
REMARK   26  A    between atoms: CB   and  CG  
ROOT
ATOM     78  CA  LEU A  96       0.717   6.481  17.359  1.00 16.08     0.177 C 
ENDROOT
BRANCH  78  79
ATOM     79  CB  LEU A  96      -0.370   7.101  18.230  1.00 18.83     0.038 C 
BRANCH  79  80
ATOM     80  CG  LEU A  96      -0.164   6.913  19.733  1.00 19.03    -0.020 C 
ATOM     81  CD1 LEU A  96       0.575   8.113  20.278  1.00 28.17     0.009 C 
ATOM     82  CD2 LEU A  96      -1.496   6.810  20.439  1.00 22.01     0.009 C 
ENDBRANCH  79  80
ENDBRANCH  78  79
END_RES LEU A  96
BEGIN_RES VAL A  98
REMARK  1 active torsions:
REMARK  status: ('A' for Active; 'I' for Inactive)
REMARK   27  A    between atoms: CA   and  CB  
ROOT
ATOM     83  CA  VAL A  98      -3.928   2.082  14.897  1.00 19.83     0.180 C 
ENDROOT
BRANCH  83  84
ATOM     84  CB  VAL A  98      -5.203   2.807  15.281  1.00 17.87     0.009 C 
ATOM     85  CG2 VAL A  98      -4.911   4.261  15.548  1.00 29.90     0.012 C 
ATOM     86  CG1 VAL A  98      -5.812   2.149  16.501  1.00 14.79     0.012 C 
ENDBRANCH  83  84
END_RES VAL A  98
BEGIN_RES ASN A 112
REMARK  2 active torsions:
REMARK  status: ('A' for Active; 'I' for Inactive)
REMARK   28  A    between atoms: CA   and  CB  
REMARK   29  A    between atoms: CB   and  CG  
REMARK       I    between atoms: CG   and  ND2 
ROOT
ATOM     87  CA  ASN A 112     -11.790  -8.793  14.069  1.00 37.70     0.185 C 
ENDROOT
BRANCH  87  88
ATOM     88  CB  ASN A 112     -12.992  -7.945  14.465  1.00 26.24     0.137 C 
BRANCH  88  89
ATOM     89  CG  ASN A 112     -13.820  -8.568  15.566  1.00 21.77     0.217 C 
ATOM     90  ND2 ASN A 112     -14.971  -9.127  15.192  1.00  9.31    -0.370 N 
ATOM     91  H04 ASN A 112     -15.570  -9.559  15.882  1.00  9.31     0.159 HD
ATOM     92  H05 ASN A 112     -15.243  -9.119  14.220  1.00  9.31     0.159 HD
ATOM     93  OD1 ASN A 112     -13.436  -8.545  16.742  1.00 21.61    -0.274 OA
ENDBRANCH  88  89
ENDBRANCH  87  88
END_RES ASN A 112
BEGIN_RES PHE A 114
REMARK  2 active torsions:
REMARK  status: ('A' for Active; 'I' for Inactive)
REMARK   30  A    between atoms: CA   and  CB  
REMARK   31  A    between atoms: CB   and  CG  
ROOT
ATOM     94  CA  PHE A 114      -7.754  -3.619  17.012  1.00 26.06     0.180 C 
ENDROOT
BRANCH  94  95
ATOM     95  CB  PHE A 114      -8.890  -3.080  17.867  1.00 19.95     0.073 C 
BRANCH  95  96
ATOM     96  CG  PHE A 114      -9.206  -1.645  17.595  1.00 17.65    -0.056 A 
ATOM     97  CD1 PHE A 114     -10.524  -1.222  17.445  1.00 13.01     0.007 A 
ATOM     98  CE1 PHE A 114     -10.817   0.106  17.163  1.00  6.74     0.001 A 
ATOM     99  CZ  PHE A 114      -9.789   1.034  17.031  1.00  6.27     0.000 A 
ATOM    100  CE2 PHE A 114      -8.474   0.625  17.180  1.00 17.36     0.001 A 
ATOM    101  CD2 PHE A 114      -8.185  -0.714  17.462  1.00 18.39     0.007 A 
ENDBRANCH  95  96
ENDBRANCH  94  95
END_RES PHE A 114
BEGIN_RES VAL A 116
REMARK  1 active torsions:
REMARK  status: ('A' for Active; 'I' for Inactive)
REMARK   32  A    between atoms: CA   and  CB  
ROOT
ATOM    102  CA  VAL A 116      -2.467   0.283  18.565  1.00 13.48     0.180 C 
ENDROOT
BRANCH 102 103
ATOM    103  CB  VAL A 116      -3.101   1.238  19.599  1.00 20.86     0.009 C 
ATOM    104  CG1 VAL A 116      -3.069   2.671  19.060  1.00 25.01     0.012 C 
ATOM    105  CG2 VAL A 116      -4.507   0.804  19.942  1.00 25.34     0.012 C 
ENDBRANCH 102 103
END_RES VAL A 116
BEGIN_RES ILE A 123
REMARK  2 active torsions:
REMARK  status: ('A' for Active; 'I' for Inactive)
REMARK   33  A    between atoms: CA   and  CB  
REMARK   34  A    between atoms: CB   and  CG1 
ROOT
ATOM    106  CA  ILE A 123       1.557  -1.626  23.222  1.00 15.07     0.180 C 
ENDROOT
BRANCH 106 107
ATOM    107  CB  ILE A 123       1.697  -0.112  23.461  1.00 14.41     0.013 C 
ATOM    108  CG2 ILE A 123       3.097   0.206  23.956  1.00 18.35     0.012 C 
BRANCH 107 109
ATOM    109  CG1 ILE A 123       1.405   0.657  22.175  1.00 15.23     0.002 C 
ATOM    110  CD1 ILE A 123       0.228   1.596  22.285  1.00 14.67     0.005 C 
ENDBRANCH 107 109
ENDBRANCH 106 107
END_RES ILE A 123
BEGIN_RES LEU A 124
REMARK  2 active torsions:
REMARK  status: ('A' for Active; 'I' for Inactive)
REMARK   35  A    between atoms: CA   and  CB  
REMARK   36  A    between atoms: CB   and  CG  
ROOT
ATOM    111  CA  LEU A 124      -2.057  -2.686  23.524  1.00 11.86     0.177 C 
ENDROOT
BRANCH 111 112
ATOM    112  CB  LEU A 124      -2.698  -1.652  24.429  1.00 14.60     0.038 C 
BRANCH 112 113
ATOM    113  CG  LEU A 124      -2.632  -0.253  23.835  1.00 16.19    -0.020 C 
ATOM    114  CD1 LEU A 124      -4.056   0.203  23.465  1.00 22.07     0.009 C 
ATOM    115  CD2 LEU A 124      -1.981   0.682  24.823  1.00  9.12     0.009 C 
ENDBRANCH 112 113
ENDBRANCH 111 112
END_RES LEU A 124
BEGIN_RES PHE A 126
REMARK  2 active torsions:
REMARK  status: ('A' for Active; 'I' for Inactive)
REMARK   37  A    between atoms: CA   and  CB  
REMARK   38  A    between atoms: CB   and  CG  
ROOT
ATOM    116  CA  PHE A 126      -8.784  -4.792  22.233  1.00 23.15     0.180 C 
ENDROOT
BRANCH 116 117
ATOM    117  CB  PHE A 126      -9.823  -4.011  21.461  1.00 20.65     0.073 C 
BRANCH 117 118
ATOM    118  CG  PHE A 126     -10.953  -3.549  22.295  1.00 23.65    -0.056 A 
ATOM    119  CD2 PHE A 126     -10.775  -2.549  23.234  1.00 36.63     0.007 A 
ATOM    120  CE2 PHE A 126     -11.847  -2.111  24.023  1.00 36.27     0.001 A 
ATOM    121  CZ  PHE A 126     -13.100  -2.683  23.866  1.00 18.06     0.000 A 
ATOM    122  CE1 PHE A 126     -13.283  -3.680  22.928  1.00  5.50     0.001 A 
ATOM    123  CD1 PHE A 126     -12.211  -4.108  22.145  1.00 15.29     0.007 A 
ENDBRANCH 117 118
ENDBRANCH 116 117
END_RES PHE A 126
BEGIN_RES TRP A 131
REMARK  2 active torsions:
REMARK  status: ('A' for Active; 'I' for Inactive)
REMARK   39  A    between atoms: CA   and  CB  
REMARK   40  A    between atoms: CB   and  CG  
ROOT
ATOM    124  CA  TRP A 131      -8.096  -3.335  26.542  1.00 14.52     0.181 C 
ENDROOT
BRANCH 124 125
ATOM    125  CB  TRP A 131      -7.651  -1.877  26.607  1.00 13.06     0.075 C 
BRANCH 125 126
ATOM    126  CG  TRP A 131      -8.055  -1.050  25.407  1.00 16.97    -0.028 A 
ATOM    127  CD2 TRP A 131      -9.138  -0.118  25.340  1.00 11.34    -0.002 A 
ATOM    128  CE2 TRP A 131      -9.147   0.427  24.041  1.00  5.87     0.042 A 
ATOM    129  CE3 TRP A 131     -10.104   0.307  26.259  1.00  3.80     0.014 A 
ATOM    130  CZ2 TRP A 131     -10.084   1.380  23.638  1.00  1.35     0.030 A 
ATOM    131  NE1 TRP A 131      -8.118  -0.147  23.347  1.00 13.90    -0.365 N 
ATOM    132  CH2 TRP A 131     -11.020   1.780  24.560  1.00  1.00     0.002 A 
ATOM    133  CZ3 TRP A 131     -11.036   1.250  25.864  1.00  1.00     0.001 A 
ATOM    134  CD1 TRP A 131      -7.466  -1.033  24.172  1.00 17.22     0.096 A 
ATOM    135  H07 TRP A 131      -7.877   0.048  22.386  1.00 13.90     0.165 HD
ENDBRANCH 125 126
ENDBRANCH 124 125
END_RES TRP A 131
BEGIN_RES LEU A 148
REMARK  2 active torsions:
REMARK  status: ('A' for Active; 'I' for Inactive)
REMARK   41  A    between atoms: CA   and  CB  
REMARK   42  A    between atoms: CB   and  CG  
ROOT
ATOM    136  CA  LEU A 148      -9.018   3.259  29.295  1.00 16.99     0.177 C 
ENDROOT
BRANCH 136 137
ATOM    137  CB  LEU A 148      -8.166   2.574  28.236  1.00  6.39     0.038 C 
BRANCH 137 138
ATOM    138  CG  LEU A 148      -7.539   3.364  27.106  1.00  1.00    -0.020 C 
ATOM    139  CD2 LEU A 148      -8.602   4.038  26.288  1.00  1.00     0.009 C 
ATOM    140  CD1 LEU A 148      -6.732   2.407  26.247  1.00  2.71     0.009 C 
ENDBRANCH 137 138
ENDBRANCH 136 137
END_RES LEU A 148
BEGIN_RES THR A 154
REMARK  2 active torsions:
REMARK  status: ('A' for Active; 'I' for Inactive)
REMARK   43  A    between atoms: CA   and  CB  
REMARK   44  A    between atoms: CB   and  OG1 
ROOT
ATOM    141  CA  THR A 154     -15.990   3.959  24.426  1.00 20.45     0.205 C 
ENDROOT
BRANCH 141 142
ATOM    142  CB  THR A 154     -14.777   4.829  24.694  1.00 16.79     0.146 C 
ATOM    143  CG2 THR A 154     -13.682   4.525  23.689  1.00 20.24     0.042 C 
BRANCH 142 144
ATOM    144  OG1 THR A 154     -15.155   6.205  24.565  1.00 18.84    -0.393 OA
ATOM    145  H06 THR A 154     -14.508   6.758  25.009  1.00 18.84     0.210 HD
ENDBRANCH 142 144
ENDBRANCH 141 142
END_RES THR A 154
BEGIN_RES VAL A 158
REMARK  1 active torsions:
REMARK  status: ('A' for Active; 'I' for Inactive)
REMARK   45  A    between atoms: CA   and  CB  
ROOT
ATOM    146  CA  VAL A 158     -15.487  -0.189  19.892  1.00 15.49     0.180 C 
ENDROOT
BRANCH 146 147
ATOM    147  CB  VAL A 158     -14.291  -0.273  20.822  1.00  6.52     0.009 C 
ATOM    148  CG1 VAL A 158     -13.244  -1.212  20.270  1.00  1.00     0.012 C 
ATOM    149  CG2 VAL A 158     -13.726   1.102  21.003  1.00  5.99     0.012 C 
ENDBRANCH 146 147
END_RES VAL A 158
BEGIN_RES LEU A 161
REMARK  2 active torsions:
REMARK  status: ('A' for Active; 'I' for Inactive)
REMARK   46  A    between atoms: CA   and  CB  
REMARK   47  A    between atoms: CB   and  CG  
ROOT
ATOM    150  CA  LEU A 161     -18.031  -1.858  15.935  1.00 13.31     0.177 C 
ENDROOT
BRANCH 150 151
ATOM    151  CB  LEU A 161     -17.046  -0.706  16.001  1.00 14.13     0.038 C 
BRANCH 151 152
ATOM    152  CG  LEU A 161     -17.413   0.542  15.207  1.00 19.39    -0.020 C 
ATOM    153  CD2 LEU A 161     -18.807   0.997  15.564  1.00 27.75     0.009 C 
ATOM    154  CD1 LEU A 161     -17.334   0.225  13.738  1.00 18.59     0.009 C 
ENDBRANCH 151 152
ENDBRANCH 150 151
END_RES LEU A 161
BEGIN_RES GLN A 168
REMARK  3 active torsions:
REMARK  status: ('A' for Active; 'I' for Inactive)
REMARK   48  A    between atoms: CA   and  CB  
REMARK   49  A    between atoms: CB   and  CG  
REMARK   50  A    between atoms: CG   and  CD  
REMARK       I    between atoms: CD   and  NE2 
ROOT
ATOM    155  CA  GLN A 168     -22.035  -6.020   8.155  1.00 30.94     0.177 C 
ENDROOT
BRANCH 155 156
ATOM    156  CB  GLN A 168     -23.054  -5.218   8.946  1.00 41.76     0.044 C 
BRANCH 156 157
ATOM    157  CG  GLN A 168     -24.481  -5.426   8.517  1.00 61.20     0.105 C 
BRANCH 157 158
ATOM    158  CD  GLN A 168     -24.978  -4.294   7.638  1.00 75.49     0.215 C 
ATOM    159  NE2 GLN A 168     -24.816  -4.453   6.323  1.00 85.00    -0.370 N 
ATOM    160  H06 GLN A 168     -25.125  -3.732   5.686  1.00 85.00     0.159 HD
ATOM    161  H07 GLN A 168     -24.386  -5.294   5.966  1.00 85.00     0.159 HD
ATOM    162  OE1 GLN A 168     -25.496  -3.282   8.132  1.00 73.64    -0.274 OA
ENDBRANCH 157 158
ENDBRANCH 156 157
ENDBRANCH 155 156
END_RES GLN A 168
ENDMDL
