MODEL 1
REMARK VINA RESULT:     -13.4      0.000      0.000
REMARK  Name = human_CD1d_CHAPS_pred.rank_0
REMARK  12 active torsions:
REMARK  status: ('A' for Active; 'I' for Inactive)
REMARK    1  A    between atoms: N_2  and  C_14
REMARK    2  A    between atoms: S_4  and  C_23
REMARK    3  A    between atoms: C_5  and  C_8
REMARK    4  A    between atoms: C_5  and  C_24
REMARK    5  A    between atoms: N_6  and  C_18
REMARK    6  A    between atoms: N_6  and  C_21
REMARK    7  A    between atoms: C_8  and  C_10
REMARK    8  A    between atoms: C_10  and  C_12
REMARK    9  A    between atoms: C_14  and  C_16
REMARK   10  A    between atoms: C_16  and  C_18
REMARK   11  A    between atoms: C_21  and  C_22
REMARK   12  A    between atoms: C_22  and  C_23
REMARK                            x       y       z     vdW  Elec       q    Type
REMARK                         _______ _______ _______ _____ _____    ______ ____
ROOT
ATOM      1  O   UNL     1      -6.747   9.251  14.256  0.00  0.00    +0.000 OA
ATOM      2  O   UNL     1     -10.810   5.858  13.006  0.00  0.00    +0.000 OA
ATOM      3  O   UNL     1      -9.730   2.162  14.707  0.00  0.00    +0.000 OA
ATOM      4  C   UNL     1     -12.593   1.573  15.123  0.00  0.00    +0.000 C 
ATOM      5  C   UNL     1     -13.846   2.314  14.588  0.00  0.00    +0.000 C 
ATOM      6  C   UNL     1     -13.498   3.790  14.542  0.00  0.00    +0.000 C 
ATOM      7  C   UNL     1     -12.004   3.841  14.810  0.00  0.00    +0.000 C 
ATOM      8  C   UNL     1     -11.805   2.720  15.829  0.00  0.00    +0.000 C 
ATOM      9  C   UNL     1     -10.294   2.550  15.976  0.00  0.00    +0.000 C 
ATOM     10  C   UNL     1      -9.620   3.882  16.482  0.00  0.00    +0.000 C 
ATOM     11  C   UNL     1      -9.948   5.112  15.624  0.00  0.00    +0.000 C 
ATOM     12  C   UNL     1     -11.431   5.199  15.266  0.00  0.00    +0.000 C 
ATOM     13  C   UNL     1     -11.607   6.229  14.105  0.00  0.00    +0.000 C 
ATOM     14  C   UNL     1     -11.189   7.624  14.697  0.00  0.00    +0.000 C 
ATOM     15  C   UNL     1      -9.907   7.696  15.446  0.00  0.00    +0.000 C 
ATOM     16  C   UNL     1      -9.430   6.458  16.254  0.00  0.00    +0.000 C 
ATOM     17  C   UNL     1      -7.884   6.371  16.420  0.00  0.00    +0.000 C 
ATOM     18  C   UNL     1      -7.044   7.171  15.426  0.00  0.00    +0.000 C 
ATOM     19  C   UNL     1      -7.644   8.511  15.119  0.00  0.00    +0.000 C 
ATOM     20  C   UNL     1      -8.923   8.241  14.419  0.00  0.00    +0.000 C 
ATOM     21  C   UNL     1      -9.947   6.687  17.601  0.00  0.00    +0.000 C 
ATOM     22  C   UNL     1     -12.429   2.972  17.196  0.00  0.00    +0.000 C 
ENDROOT
BRANCH   4  24
ATOM     23  C   UNL     1     -11.759  -0.396  16.474  0.00  0.00    +0.000 C 
ATOM     24  C   UNL     1     -12.967   0.344  15.964  0.00  0.00    +0.000 C 
BRANCH  24  25
ATOM     25  C   UNL     1     -13.829  -0.614  15.066  0.00  0.00    +0.000 C 
BRANCH  25  26
ATOM     26  C   UNL     1     -12.980  -1.129  13.920  0.00  0.00    +0.000 C 
BRANCH  26  29
ATOM     27  N   UNL     1     -13.048  -0.721  11.494  0.00  0.00    +0.000 NA
ATOM     28  O   UNL     1     -14.987  -1.007  12.606  0.00  0.00    +0.000 OA
ATOM     29  C   UNL     1     -13.772  -0.917  12.619  0.00  0.00    +0.000 C 
BRANCH  27  30
ATOM     30  C   UNL     1     -13.744  -0.680  10.160  0.00  0.00    +0.000 C 
BRANCH  30  31
ATOM     31  C   UNL     1     -14.095   0.756   9.736  0.00  0.00    +0.000 C 
BRANCH  31  32
ATOM     32  C   UNL     1     -15.137   0.778   8.680  0.00  0.00    +0.000 C 
BRANCH  32  33
ATOM     33  N   UNL     1     -16.354   1.466   9.152  0.00  0.00    +0.000 N 
ATOM     34  C   UNL     1     -17.302   0.448   9.551  0.00  0.00    +0.000 C 
ATOM     35  C   UNL     1     -16.102   2.359  10.272  0.00  0.00    +0.000 C 
BRANCH  33  36
ATOM     36  C   UNL     1     -16.933   2.259   8.004  0.00  0.00    +0.000 C 
BRANCH  36  37
ATOM     37  C   UNL     1     -16.626   3.797   8.070  0.00  0.00    +0.000 C 
BRANCH  37  38
ATOM     38  C   UNL     1     -17.533   4.529   7.124  0.00  0.00    +0.000 C 
BRANCH  38  39
ATOM     39  S   UNL     1     -17.164   6.195   7.191  0.00  0.00    +0.000 S 
ATOM     40  O   UNL     1     -16.419   6.456   8.409  0.00  0.00    +0.000 OA
ATOM     41  O   UNL     1     -18.385   7.016   7.142  0.00  0.00    +0.000 OA
ATOM     42  O   UNL     1     -16.353   6.524   6.006  0.00  0.00    +0.000 OA
ENDBRANCH  38  39
ENDBRANCH  37  38
ENDBRANCH  36  37
ENDBRANCH  33  36
ENDBRANCH  32  33
ENDBRANCH  31  32
ENDBRANCH  30  31
ENDBRANCH  27  30
ENDBRANCH  26  29
ENDBRANCH  25  26
ENDBRANCH  24  25
ENDBRANCH   4  24
TORSDOF 12
BEGIN_RES LEU A  10
REMARK  2 active torsions:
REMARK  status: ('A' for Active; 'I' for Inactive)
REMARK    1  A    between atoms: CA   and  CB  
REMARK    2  A    between atoms: CB   and  CG  
ROOT
ATOM      1  CA  LEU A  10     -10.775  -4.871   5.898  1.00 25.14     0.177 C 
ENDROOT
BRANCH   1   2
ATOM      2  CB  LEU A  10     -12.191  -4.387   6.226  1.00 17.87     0.038 C 
BRANCH   2   3
ATOM      3  CG  LEU A  10     -12.482  -2.947   5.799  1.00 24.95    -0.020 C 
ATOM      4  CD2 LEU A  10     -12.324  -2.048   6.979  1.00 26.38     0.009 C 
ATOM      5  CD1 LEU A  10     -13.880  -2.825   5.217  1.00 28.12     0.009 C 
ENDBRANCH   2   3
ENDBRANCH   1   2
END_RES LEU A  10
BEGIN_RES CYS A  12
REMARK  2 active torsions:
REMARK  status: ('A' for Active; 'I' for Inactive)
REMARK    3  A    between atoms: CA   and  CB  
REMARK    4  A    between atoms: CB   and  SG  
ROOT
ATOM      6  CA  CYS A  12      -8.555   0.470   8.750  1.00 23.16     0.185 C 
ENDROOT
BRANCH   6   7
ATOM      7  CB  CYS A  12      -9.828   0.763   9.555  1.00 20.43     0.105 C 
BRANCH   7   8
ATOM      8  SG  CYS A  12     -10.646   2.351   9.209  1.00 24.64    -0.180 SA
ATOM      9  H04 CYS A  12     -11.438   2.680  10.238  1.00 24.64     0.101 HD
ENDBRANCH   7   8
ENDBRANCH   6   7
END_RES CYS A  12
BEGIN_RES GLN A  14
REMARK  3 active torsions:
REMARK  status: ('A' for Active; 'I' for Inactive)
REMARK    5  A    between atoms: CA   and  CB  
REMARK    6  A    between atoms: CB   and  CG  
REMARK    7  A    between atoms: CG   and  CD  
REMARK       I    between atoms: CD   and  NE2 
ROOT
ATOM     10  CA  GLN A  14      -4.645   5.402  11.377  1.00 10.43     0.177 C 
ENDROOT
BRANCH  10  11
ATOM     11  CB  GLN A  14      -5.541   5.549  12.608  1.00 14.45     0.044 C 
BRANCH  11  12
ATOM     12  CG  GLN A  14      -6.925   6.075  12.305  1.00 13.74     0.105 C 
BRANCH  12  13
ATOM     13  CD  GLN A  14      -7.870   4.986  11.854  1.00 16.29     0.215 C 
ATOM     14  NE2 GLN A  14      -8.560   5.225  10.760  1.00  8.57    -0.370 N 
ATOM     15  H06 GLN A  14      -9.206   4.533  10.409  1.00  8.57     0.159 HD
ATOM     16  H07 GLN A  14      -8.442   6.100  10.269  1.00  8.57     0.159 HD
ATOM     17  OE1 GLN A  14      -7.975   3.944  12.481  1.00 23.55    -0.274 OA
ENDBRANCH  12  13
ENDBRANCH  11  12
ENDBRANCH  10  11
END_RES GLN A  14
BEGIN_RES SER A  16
REMARK  2 active torsions:
REMARK  status: ('A' for Active; 'I' for Inactive)
REMARK    8  A    between atoms: CA   and  CB  
REMARK    9  A    between atoms: CB   and  OG  
ROOT
ATOM     18  CA  SER A  16      -1.305  10.019  14.282  1.00  2.34     0.200 C 
ENDROOT
BRANCH  18  19
ATOM     19  CB  SER A  16      -2.242   9.935  15.479  1.00  3.12     0.199 C 
BRANCH  19  20
ATOM     20  OG  SER A  16      -1.985   8.757  16.224  1.00  1.00    -0.398 OA
ATOM     21  H04 SER A  16      -1.989   8.964  17.161  1.00  1.00     0.209 HD
ENDBRANCH  19  20
ENDBRANCH  18  19
END_RES SER A  16
BEGIN_RES LEU A  32
REMARK  2 active torsions:
REMARK  status: ('A' for Active; 'I' for Inactive)
REMARK   10  A    between atoms: CA   and  CB  
REMARK   11  A    between atoms: CB   and  CG  
ROOT
ATOM     22  CA  LEU A  32     -10.272  -4.106   1.587  1.00 16.16     0.177 C 
ENDROOT
BRANCH  22  23
ATOM     23  CB  LEU A  32     -11.613  -3.858   0.880  1.00 12.35     0.038 C 
BRANCH  23  24
ATOM     24  CG  LEU A  32     -12.603  -5.020   1.102  1.00  9.77    -0.020 C 
ATOM     25  CD1 LEU A  32     -12.989  -5.109   2.559  1.00  4.35     0.009 C 
ATOM     26  CD2 LEU A  32     -13.838  -4.842   0.259  1.00 10.60     0.009 C 
ENDBRANCH  23  24
ENDBRANCH  22  23
END_RES LEU A  32
BEGIN_RES HIS A  38
REMARK  2 active torsions:
REMARK  status: ('A' for Active; 'I' for Inactive)
REMARK   12  A    between atoms: CA   and  CB  
REMARK   13  A    between atoms: CB   and  CG  
ROOT
ATOM     27  CA  HIS A  38     -10.959   4.941   1.621  1.00 16.94     0.182 C 
ENDROOT
BRANCH  27  28
ATOM     28  CB  HIS A  38     -11.810   4.840   2.881  1.00 15.47     0.095 C 
BRANCH  28  29
ATOM     29  CG  HIS A  38     -13.273   5.020   2.637  1.00 18.62     0.053 A 
ATOM     30  CD2 HIS A  38     -13.951   5.379   1.520  1.00 15.06     0.116 A 
ATOM     31  NE2 HIS A  38     -15.285   5.363   1.837  1.00 18.12    -0.359 N 
ATOM     32  CE1 HIS A  38     -15.424   5.009   3.100  1.00 14.78     0.207 A 
ATOM     33  H06 HIS A  38     -16.040   5.587   1.204  1.00 18.12     0.166 HD
ATOM     34  ND1 HIS A  38     -14.226   4.797   3.607  1.00 16.58    -0.247 NA
ENDBRANCH  28  29
ENDBRANCH  27  28
END_RES HIS A  38
BEGIN_RES TRP A  63
REMARK  2 active torsions:
REMARK  status: ('A' for Active; 'I' for Inactive)
REMARK   14  A    between atoms: CA   and  CB  
REMARK   15  A    between atoms: CB   and  CG  
ROOT
ATOM     35  CA  TRP A  63     -22.437   6.257   6.543  1.00 27.04     0.181 C 
ENDROOT
BRANCH  35  36
ATOM     36  CB  TRP A  63     -22.360   6.642   5.068  1.00 31.37     0.075 C 
BRANCH  36  37
ATOM     37  CG  TRP A  63     -20.961   6.634   4.488  1.00 34.37    -0.028 A 
ATOM     38  CD2 TRP A  63     -20.291   7.715   3.825  1.00 33.79    -0.002 A 
ATOM     39  CE3 TRP A  63     -20.661   9.011   3.461  1.00 32.99     0.014 A 
ATOM     40  CE2 TRP A  63     -18.985   7.272   3.521  1.00 35.84     0.042 A 
ATOM     41  CZ3 TRP A  63     -19.732   9.813   2.813  1.00 32.93     0.001 A 
ATOM     42  CH2 TRP A  63     -18.441   9.343   2.524  1.00 39.24     0.002 A 
ATOM     43  CZ2 TRP A  63     -18.049   8.078   2.871  1.00 37.99     0.030 A 
ATOM     44  NE1 TRP A  63     -18.874   5.986   3.977  1.00 37.98    -0.365 N 
ATOM     45  H06 TRP A  63     -18.051   5.406   3.901  1.00 37.98     0.165 HD
ATOM     46  CD1 TRP A  63     -20.065   5.614   4.552  1.00 38.16     0.096 A 
ENDBRANCH  36  37
ENDBRANCH  35  36
END_RES TRP A  63
BEGIN_RES LEU A  66
REMARK  2 active torsions:
REMARK  status: ('A' for Active; 'I' for Inactive)
REMARK   16  A    between atoms: CA   and  CB  
REMARK   17  A    between atoms: CB   and  CG  
ROOT
ATOM     47  CA  LEU A  66     -20.004   6.489  11.120  1.00 10.90     0.177 C 
ENDROOT
BRANCH  47  48
ATOM     48  CB  LEU A  66     -19.626   5.453  10.069  1.00 13.57     0.038 C 
BRANCH  48  49
ATOM     49  CG  LEU A  66     -19.207   4.071  10.568  1.00  8.73    -0.020 C 
ATOM     50  CD1 LEU A  66     -19.260   4.011  12.073  1.00 14.23     0.009 C 
ATOM     51  CD2 LEU A  66     -20.141   3.046   9.977  1.00  1.92     0.009 C 
ENDBRANCH  48  49
ENDBRANCH  47  48
END_RES LEU A  66
BEGIN_RES PHE A  70
REMARK  2 active torsions:
REMARK  status: ('A' for Active; 'I' for Inactive)
REMARK   18  A    between atoms: CA   and  CB  
REMARK   19  A    between atoms: CB   and  CG  
ROOT
ATOM     52  CA  PHE A  70     -14.974   9.434  13.165  1.00  8.78     0.180 C 
ENDROOT
BRANCH  52  53
ATOM     53  CB  PHE A  70     -14.707   9.132  11.681  1.00  6.33     0.073 C 
BRANCH  53  54
ATOM     54  CG  PHE A  70     -14.372   7.690  11.415  1.00  3.42    -0.056 A 
ATOM     55  CD1 PHE A  70     -14.897   6.676  12.202  1.00 13.88     0.007 A 
ATOM     56  CE1 PHE A  70     -14.543   5.334  11.978  1.00 12.71     0.001 A 
ATOM     57  CZ  PHE A  70     -13.655   5.005  10.953  1.00  4.21     0.000 A 
ATOM     58  CE2 PHE A  70     -13.127   6.006  10.160  1.00  2.83     0.001 A 
ATOM     59  CD2 PHE A  70     -13.487   7.345  10.393  1.00  1.00     0.007 A 
ENDBRANCH  53  54
ENDBRANCH  52  53
END_RES PHE A  70
BEGIN_RES TYR A  73
REMARK  3 active torsions:
REMARK  status: ('A' for Active; 'I' for Inactive)
REMARK   20  A    between atoms: CA   and  CB  
REMARK   21  A    between atoms: CB   and  CG  
REMARK   22  A    between atoms: CZ   and  OH  
ROOT
ATOM     60  CA  TYR A  73     -13.212  10.166  17.260  1.00 12.17     0.180 C 
ENDROOT
BRANCH  60  61
ATOM     61  CB  TYR A  73     -13.301   8.846  16.517  1.00 12.84     0.073 C 
BRANCH  61  62
ATOM     62  CG  TYR A  73     -13.626   7.697  17.406  1.00 15.89    -0.056 A 
ATOM     63  CD1 TYR A  73     -13.273   7.706  18.737  1.00 16.00     0.010 A 
ATOM     64  CE1 TYR A  73     -13.549   6.618  19.565  1.00 13.55     0.037 A 
ATOM     65  CZ  TYR A  73     -14.186   5.512  19.038  1.00 18.13     0.065 A 
ATOM     66  CE2 TYR A  73     -14.550   5.478  17.712  1.00 15.89     0.037 A 
ATOM     67  CD2 TYR A  73     -14.268   6.571  16.903  1.00 21.86     0.010 A 
BRANCH  65  68
ATOM     68  OH  TYR A  73     -14.473   4.431  19.836  1.00 12.12    -0.361 OA
ATOM     69  H08 TYR A  73     -13.880   4.425  20.592  1.00 12.12     0.217 HD
ENDBRANCH  65  68
ENDBRANCH  61  62
ENDBRANCH  60  61
END_RES TYR A  73
BEGIN_RES PHE A  77
REMARK  2 active torsions:
REMARK  status: ('A' for Active; 'I' for Inactive)
REMARK   23  A    between atoms: CA   and  CB  
REMARK   24  A    between atoms: CB   and  CG  
ROOT
ATOM     70  CA  PHE A  77      -8.400  10.581  20.110  1.00 17.17     0.180 C 
ENDROOT
BRANCH  70  71
ATOM     71  CB  PHE A  77      -8.228   9.750  18.851  1.00 10.44     0.073 C 
BRANCH  71  72
ATOM     72  CG  PHE A  77      -7.074   8.799  18.909  1.00  6.07    -0.056 A 
ATOM     73  CD2 PHE A  77      -5.918   9.058  18.210  1.00  9.61     0.007 A 
ATOM     74  CE2 PHE A  77      -4.840   8.181  18.260  1.00  1.00     0.001 A 
ATOM     75  CZ  PHE A  77      -4.922   7.029  19.024  1.00  1.92     0.000 A 
ATOM     76  CE1 PHE A  77      -6.071   6.756  19.730  1.00  9.25     0.001 A 
ATOM     77  CD1 PHE A  77      -7.145   7.643  19.670  1.00  9.63     0.007 A 
ENDBRANCH  71  72
ENDBRANCH  70  71
END_RES PHE A  77
BEGIN_RES LEU A  96
REMARK  2 active torsions:
REMARK  status: ('A' for Active; 'I' for Inactive)
REMARK   25  A    between atoms: CA   and  CB  
REMARK   26  A    between atoms: CB   and  CG  
ROOT
ATOM     78  CA  LEU A  96       0.717   6.481  17.359  1.00 16.08     0.177 C 
ENDROOT
BRANCH  78  79
ATOM     79  CB  LEU A  96      -0.370   7.101  18.230  1.00 18.83     0.038 C 
BRANCH  79  80
ATOM     80  CG  LEU A  96      -0.142   6.950  19.734  1.00 19.03    -0.020 C 
ATOM     81  CD1 LEU A  96       0.598   8.167  20.239  1.00 28.17     0.009 C 
ATOM     82  CD2 LEU A  96      -1.463   6.857  20.461  1.00 22.01     0.009 C 
ENDBRANCH  79  80
ENDBRANCH  78  79
END_RES LEU A  96
BEGIN_RES VAL A  98
REMARK  1 active torsions:
REMARK  status: ('A' for Active; 'I' for Inactive)
REMARK   27  A    between atoms: CA   and  CB  
ROOT
ATOM     83  CA  VAL A  98      -3.928   2.082  14.897  1.00 19.83     0.180 C 
ENDROOT
BRANCH  83  84
ATOM     84  CB  VAL A  98      -5.203   2.807  15.281  1.00 17.87     0.009 C 
ATOM     85  CG2 VAL A  98      -5.153   3.207  16.733  1.00 29.90     0.012 C 
ATOM     86  CG1 VAL A  98      -6.395   1.913  15.010  1.00 14.79     0.012 C 
ENDBRANCH  83  84
END_RES VAL A  98
BEGIN_RES ASN A 112
REMARK  2 active torsions:
REMARK  status: ('A' for Active; 'I' for Inactive)
REMARK   28  A    between atoms: CA   and  CB  
REMARK   29  A    between atoms: CB   and  CG  
REMARK       I    between atoms: CG   and  ND2 
ROOT
ATOM     87  CA  ASN A 112     -11.790  -8.793  14.069  1.00 37.70     0.185 C 
ENDROOT
BRANCH  87  88
ATOM     88  CB  ASN A 112     -12.992  -7.945  14.465  1.00 26.24     0.137 C 
BRANCH  88  89
ATOM     89  CG  ASN A 112     -13.828  -8.575  15.556  1.00 21.77     0.217 C 
ATOM     90  ND2 ASN A 112     -14.985  -9.114  15.172  1.00  9.31    -0.370 N 
ATOM     91  H04 ASN A 112     -15.591  -9.549  15.855  1.00  9.31     0.159 HD
ATOM     92  H05 ASN A 112     -15.257  -9.088  14.200  1.00  9.31     0.159 HD
ATOM     93  OD1 ASN A 112     -13.445  -8.575  16.732  1.00 21.61    -0.274 OA
ENDBRANCH  88  89
ENDBRANCH  87  88
END_RES ASN A 112
BEGIN_RES PHE A 114
REMARK  2 active torsions:
REMARK  status: ('A' for Active; 'I' for Inactive)
REMARK   30  A    between atoms: CA   and  CB  
REMARK   31  A    between atoms: CB   and  CG  
ROOT
ATOM     94  CA  PHE A 114      -7.754  -3.619  17.012  1.00 26.06     0.180 C 
ENDROOT
BRANCH  94  95
ATOM     95  CB  PHE A 114      -8.890  -3.080  17.867  1.00 19.95     0.073 C 
BRANCH  95  96
ATOM     96  CG  PHE A 114      -8.733  -1.636  18.219  1.00 17.65    -0.056 A 
ATOM     97  CD1 PHE A 114      -8.048  -0.767  17.374  1.00 13.01     0.007 A 
ATOM     98  CE1 PHE A 114      -7.876   0.568  17.714  1.00  6.74     0.001 A 
ATOM     99  CZ  PHE A 114      -8.394   1.055  18.911  1.00  6.27     0.000 A 
ATOM    100  CE2 PHE A 114      -9.078   0.200  19.759  1.00 17.36     0.001 A 
ATOM    101  CD2 PHE A 114      -9.246  -1.145  19.411  1.00 18.39     0.007 A 
ENDBRANCH  95  96
ENDBRANCH  94  95
END_RES PHE A 114
BEGIN_RES VAL A 116
REMARK  1 active torsions:
REMARK  status: ('A' for Active; 'I' for Inactive)
REMARK   32  A    between atoms: CA   and  CB  
ROOT
ATOM    102  CA  VAL A 116      -2.467   0.283  18.565  1.00 13.48     0.180 C 
ENDROOT
BRANCH 102 103
ATOM    103  CB  VAL A 116      -3.101   1.238  19.599  1.00 20.86     0.009 C 
ATOM    104  CG1 VAL A 116      -2.699   2.680  19.278  1.00 25.01     0.012 C 
ATOM    105  CG2 VAL A 116      -4.602   1.073  19.634  1.00 25.34     0.012 C 
ENDBRANCH 102 103
END_RES VAL A 116
BEGIN_RES ILE A 123
REMARK  2 active torsions:
REMARK  status: ('A' for Active; 'I' for Inactive)
REMARK   33  A    between atoms: CA   and  CB  
REMARK   34  A    between atoms: CB   and  CG1 
ROOT
ATOM    106  CA  ILE A 123       1.557  -1.626  23.222  1.00 15.07     0.180 C 
ENDROOT
BRANCH 106 107
ATOM    107  CB  ILE A 123       1.697  -0.112  23.461  1.00 14.41     0.013 C 
ATOM    108  CG2 ILE A 123       3.108   0.211  23.921  1.00 18.35     0.012 C 
BRANCH 107 109
ATOM    109  CG1 ILE A 123       1.369   0.659  22.185  1.00 15.23     0.002 C 
ATOM    110  CD1 ILE A 123       0.223   1.629  22.340  1.00 14.67     0.005 C 
ENDBRANCH 107 109
ENDBRANCH 106 107
END_RES ILE A 123
BEGIN_RES LEU A 124
REMARK  2 active torsions:
REMARK  status: ('A' for Active; 'I' for Inactive)
REMARK   35  A    between atoms: CA   and  CB  
REMARK   36  A    between atoms: CB   and  CG  
ROOT
ATOM    111  CA  LEU A 124      -2.057  -2.686  23.524  1.00 11.86     0.177 C 
ENDROOT
BRANCH 111 112
ATOM    112  CB  LEU A 124      -2.698  -1.652  24.429  1.00 14.60     0.038 C 
BRANCH 112 113
ATOM    113  CG  LEU A 124      -2.610  -0.249  23.846  1.00 16.19    -0.020 C 
ATOM    114  CD1 LEU A 124      -4.002   0.170  23.336  1.00 22.07     0.009 C 
ATOM    115  CD2 LEU A 124      -2.087   0.699  24.896  1.00  9.12     0.009 C 
ENDBRANCH 112 113
ENDBRANCH 111 112
END_RES LEU A 124
BEGIN_RES PHE A 126
REMARK  2 active torsions:
REMARK  status: ('A' for Active; 'I' for Inactive)
REMARK   37  A    between atoms: CA   and  CB  
REMARK   38  A    between atoms: CB   and  CG  
ROOT
ATOM    116  CA  PHE A 126      -8.784  -4.792  22.233  1.00 23.15     0.180 C 
ENDROOT
BRANCH 116 117
ATOM    117  CB  PHE A 126      -9.823  -4.011  21.461  1.00 20.65     0.073 C 
BRANCH 117 118
ATOM    118  CG  PHE A 126     -10.947  -3.538  22.298  1.00 23.65    -0.056 A 
ATOM    119  CD2 PHE A 126     -10.755  -2.542  23.239  1.00 36.63     0.007 A 
ATOM    120  CE2 PHE A 126     -11.822  -2.093  24.030  1.00 36.27     0.001 A 
ATOM    121  CZ  PHE A 126     -13.082  -2.651  23.873  1.00 18.06     0.000 A 
ATOM    122  CE1 PHE A 126     -13.277  -3.644  22.933  1.00  5.50     0.001 A 
ATOM    123  CD1 PHE A 126     -12.211  -4.082  22.148  1.00 15.29     0.007 A 
ENDBRANCH 117 118
ENDBRANCH 116 117
END_RES PHE A 126
BEGIN_RES TRP A 131
REMARK  2 active torsions:
REMARK  status: ('A' for Active; 'I' for Inactive)
REMARK   39  A    between atoms: CA   and  CB  
REMARK   40  A    between atoms: CB   and  CG  
ROOT
ATOM    124  CA  TRP A 131      -8.096  -3.335  26.542  1.00 14.52     0.181 C 
ENDROOT
BRANCH 124 125
ATOM    125  CB  TRP A 131      -7.651  -1.877  26.607  1.00 13.06     0.075 C 
BRANCH 125 126
ATOM    126  CG  TRP A 131      -8.046  -1.053  25.402  1.00 16.97    -0.028 A 
ATOM    127  CD2 TRP A 131      -9.124  -0.117  25.326  1.00 11.34    -0.002 A 
ATOM    128  CE2 TRP A 131      -9.124   0.424  24.025  1.00  5.87     0.042 A 
ATOM    129  CE3 TRP A 131     -10.093   0.316  26.238  1.00  3.80     0.014 A 
ATOM    130  CZ2 TRP A 131     -10.055   1.379  23.613  1.00  1.35     0.030 A 
ATOM    131  NE1 TRP A 131      -8.094  -0.157  23.338  1.00 13.90    -0.365 N 
ATOM    132  CH2 TRP A 131     -10.994   1.787  24.529  1.00  1.00     0.002 A 
ATOM    133  CZ3 TRP A 131     -11.019   1.261  25.834  1.00  1.00     0.001 A 
ATOM    134  CD1 TRP A 131      -7.450  -1.043  24.170  1.00 17.22     0.096 A 
ATOM    135  H07 TRP A 131      -7.847   0.033  22.378  1.00 13.90     0.165 HD
ENDBRANCH 125 126
ENDBRANCH 124 125
END_RES TRP A 131
BEGIN_RES LEU A 148
REMARK  2 active torsions:
REMARK  status: ('A' for Active; 'I' for Inactive)
REMARK   41  A    between atoms: CA   and  CB  
REMARK   42  A    between atoms: CB   and  CG  
ROOT
ATOM    136  CA  LEU A 148      -9.018   3.259  29.295  1.00 16.99     0.177 C 
ENDROOT
BRANCH 136 137
ATOM    137  CB  LEU A 148      -8.166   2.574  28.236  1.00  6.39     0.038 C 
BRANCH 137 138
ATOM    138  CG  LEU A 148      -7.543   3.363  27.103  1.00  1.00    -0.020 C 
ATOM    139  CD2 LEU A 148      -8.610   4.016  26.274  1.00  1.00     0.009 C 
ATOM    140  CD1 LEU A 148      -6.717   2.410  26.257  1.00  2.71     0.009 C 
ENDBRANCH 137 138
ENDBRANCH 136 137
END_RES LEU A 148
BEGIN_RES THR A 154
REMARK  2 active torsions:
REMARK  status: ('A' for Active; 'I' for Inactive)
REMARK   43  A    between atoms: CA   and  CB  
REMARK   44  A    between atoms: CB   and  OG1 
ROOT
ATOM    141  CA  THR A 154     -15.990   3.959  24.426  1.00 20.45     0.205 C 
ENDROOT
BRANCH 141 142
ATOM    142  CB  THR A 154     -14.777   4.829  24.694  1.00 16.79     0.146 C 
ATOM    143  CG2 THR A 154     -13.649   4.460  23.750  1.00 20.24     0.042 C 
BRANCH 142 144
ATOM    144  OG1 THR A 154     -15.132   6.200  24.477  1.00 18.84    -0.393 OA
ATOM    145  H06 THR A 154     -15.913   6.245  23.920  1.00 18.84     0.210 HD
ENDBRANCH 142 144
ENDBRANCH 141 142
END_RES THR A 154
BEGIN_RES VAL A 158
REMARK  1 active torsions:
REMARK  status: ('A' for Active; 'I' for Inactive)
REMARK   45  A    between atoms: CA   and  CB  
ROOT
ATOM    146  CA  VAL A 158     -15.487  -0.189  19.892  1.00 15.49     0.180 C 
ENDROOT
BRANCH 146 147
ATOM    147  CB  VAL A 158     -14.291  -0.273  20.822  1.00  6.52     0.009 C 
ATOM    148  CG1 VAL A 158     -13.250  -1.224  20.277  1.00  1.00     0.012 C 
ATOM    149  CG2 VAL A 158     -13.717   1.100  20.991  1.00  5.99     0.012 C 
ENDBRANCH 146 147
END_RES VAL A 158
BEGIN_RES LEU A 161
REMARK  2 active torsions:
REMARK  status: ('A' for Active; 'I' for Inactive)
REMARK   46  A    between atoms: CA   and  CB  
REMARK   47  A    between atoms: CB   and  CG  
ROOT
ATOM    150  CA  LEU A 161     -18.031  -1.858  15.935  1.00 13.31     0.177 C 
ENDROOT
BRANCH 150 151
ATOM    151  CB  LEU A 161     -17.046  -0.706  16.001  1.00 14.13     0.038 C 
BRANCH 151 152
ATOM    152  CG  LEU A 161     -17.509   0.613  15.396  1.00 19.39    -0.020 C 
ATOM    153  CD2 LEU A 161     -16.962   1.774  16.192  1.00 27.75     0.009 C 
ATOM    154  CD1 LEU A 161     -19.014   0.649  15.400  1.00 18.59     0.009 C 
ENDBRANCH 151 152
ENDBRANCH 150 151
END_RES LEU A 161
BEGIN_RES GLN A 168
REMARK  3 active torsions:
REMARK  status: ('A' for Active; 'I' for Inactive)
REMARK   48  A    between atoms: CA   and  CB  
REMARK   49  A    between atoms: CB   and  CG  
REMARK   50  A    between atoms: CG   and  CD  
REMARK       I    between atoms: CD   and  NE2 
ROOT
ATOM    155  CA  GLN A 168     -22.035  -6.020   8.155  1.00 30.94     0.177 C 
ENDROOT
BRANCH 155 156
ATOM    156  CB  GLN A 168     -23.054  -5.218   8.946  1.00 41.76     0.044 C 
BRANCH 156 157
ATOM    157  CG  GLN A 168     -24.468  -5.718   8.829  1.00 61.20     0.105 C 
BRANCH 157 158
ATOM    158  CD  GLN A 168     -25.263  -4.934   7.803  1.00 75.49     0.215 C 
ATOM    159  NE2 GLN A 168     -26.125  -4.037   8.284  1.00 85.00    -0.370 N 
ATOM    160  H06 GLN A 168     -26.686  -3.485   7.651  1.00 85.00     0.159 HD
ATOM    161  H07 GLN A 168     -26.218  -3.911   9.282  1.00 85.00     0.159 HD
ATOM    162  OE1 GLN A 168     -25.110  -5.133   6.589  1.00 73.64    -0.274 OA
ENDBRANCH 157 158
ENDBRANCH 156 157
ENDBRANCH 155 156
END_RES GLN A 168
ENDMDL
MODEL 2
REMARK VINA RESULT:     -13.1      1.798      3.767
REMARK  Name = human_CD1d_CHAPS_pred.rank_0
REMARK  12 active torsions:
REMARK  status: ('A' for Active; 'I' for Inactive)
REMARK    1  A    between atoms: N_2  and  C_14
REMARK    2  A    between atoms: S_4  and  C_23
REMARK    3  A    between atoms: C_5  and  C_8
REMARK    4  A    between atoms: C_5  and  C_24
REMARK    5  A    between atoms: N_6  and  C_18
REMARK    6  A    between atoms: N_6  and  C_21
REMARK    7  A    between atoms: C_8  and  C_10
REMARK    8  A    between atoms: C_10  and  C_12
REMARK    9  A    between atoms: C_14  and  C_16
REMARK   10  A    between atoms: C_16  and  C_18
REMARK   11  A    between atoms: C_21  and  C_22
REMARK   12  A    between atoms: C_22  and  C_23
REMARK                            x       y       z     vdW  Elec       q    Type
REMARK                         _______ _______ _______ _____ _____    ______ ____
ROOT
ATOM      1  O   UNL     1     -11.409   4.287  20.351  0.00  0.00    +0.000 OA
ATOM      2  O   UNL     1     -13.375   3.211  15.396  0.00  0.00    +0.000 OA
ATOM      3  O   UNL     1     -12.397   6.574  13.060  0.00  0.00    +0.000 OA
ATOM      4  C   UNL     1     -12.163   4.808  10.706  0.00  0.00    +0.000 C 
ATOM      5  C   UNL     1     -12.572   3.322  10.536  0.00  0.00    +0.000 C 
ATOM      6  C   UNL     1     -12.325   2.642  11.870  0.00  0.00    +0.000 C 
ATOM      7  C   UNL     1     -12.020   3.779  12.829  0.00  0.00    +0.000 C 
ATOM      8  C   UNL     1     -11.232   4.756  11.957  0.00  0.00    +0.000 C 
ATOM      9  C   UNL     1     -11.089   6.033  12.782  0.00  0.00    +0.000 C 
ATOM     10  C   UNL     1     -10.322   5.755  14.130  0.00  0.00    +0.000 C 
ATOM     11  C   UNL     1     -10.933   4.629  14.975  0.00  0.00    +0.000 C 
ATOM     12  C   UNL     1     -11.299   3.402  14.139  0.00  0.00    +0.000 C 
ATOM     13  C   UNL     1     -12.243   2.485  14.982  0.00  0.00    +0.000 C 
ATOM     14  C   UNL     1     -11.384   1.981  16.199  0.00  0.00    +0.000 C 
ATOM     15  C   UNL     1     -10.609   2.994  16.959  0.00  0.00    +0.000 C 
ATOM     16  C   UNL     1     -10.045   4.235  16.213  0.00  0.00    +0.000 C 
ATOM     17  C   UNL     1      -9.866   5.488  17.119  0.00  0.00    +0.000 C 
ATOM     18  C   UNL     1     -10.669   5.512  18.418  0.00  0.00    +0.000 C 
ATOM     19  C   UNL     1     -10.725   4.168  19.081  0.00  0.00    +0.000 C 
ATOM     20  C   UNL     1     -11.490   3.287  18.166  0.00  0.00    +0.000 C 
ATOM     21  C   UNL     1      -8.690   3.840  15.834  0.00  0.00    +0.000 C 
ATOM     22  C   UNL     1      -9.856   4.267  11.523  0.00  0.00    +0.000 C 
ENDROOT
BRANCH   4  24
ATOM     23  C   UNL     1     -12.348   6.601   8.931  0.00  0.00    +0.000 C 
ATOM     24  C   UNL     1     -11.583   5.396   9.411  0.00  0.00    +0.000 C 
BRANCH  24  25
ATOM     25  C   UNL     1     -11.622   4.277   8.310  0.00  0.00    +0.000 C 
BRANCH  25  26
ATOM     26  C   UNL     1     -12.092   4.878   6.999  0.00  0.00    +0.000 C 
BRANCH  26  29
ATOM     27  N   UNL     1     -13.590   2.928   7.112  0.00  0.00    +0.000 NA
ATOM     28  O   UNL     1     -14.226   4.724   5.908  0.00  0.00    +0.000 OA
ATOM     29  C   UNL     1     -13.391   4.162   6.595  0.00  0.00    +0.000 C 
BRANCH  27  30
ATOM     30  C   UNL     1     -14.912   2.239   6.903  0.00  0.00    +0.000 C 
BRANCH  30  31
ATOM     31  C   UNL     1     -15.779   2.255   8.174  0.00  0.00    +0.000 C 
BRANCH  31  32
ATOM     32  C   UNL     1     -15.254   1.331   9.208  0.00  0.00    +0.000 C 
BRANCH  32  33
ATOM     33  N   UNL     1     -16.343   0.537   9.810  0.00  0.00    +0.000 N 
ATOM     34  C   UNL     1     -17.585   0.978   9.210  0.00  0.00    +0.000 C 
ATOM     35  C   UNL     1     -16.184  -0.893   9.598  0.00  0.00    +0.000 C 
BRANCH  33  36
ATOM     36  C   UNL     1     -16.382   0.819  11.293  0.00  0.00    +0.000 C 
BRANCH  36  37
ATOM     37  C   UNL     1     -15.760  -0.318  12.177  0.00  0.00    +0.000 C 
BRANCH  37  38
ATOM     38  C   UNL     1     -14.523   0.193  12.854  0.00  0.00    +0.000 C 
BRANCH  38  39
ATOM     39  S   UNL     1     -13.530  -1.136  13.258  0.00  0.00    +0.000 S 
ATOM     40  O   UNL     1     -12.496  -1.266  12.248  0.00  0.00    +0.000 OA
ATOM     41  O   UNL     1     -14.314  -2.377  13.363  0.00  0.00    +0.000 OA
ATOM     42  O   UNL     1     -12.934  -0.867  14.579  0.00  0.00    +0.000 OA
ENDBRANCH  38  39
ENDBRANCH  37  38
ENDBRANCH  36  37
ENDBRANCH  33  36
ENDBRANCH  32  33
ENDBRANCH  31  32
ENDBRANCH  30  31
ENDBRANCH  27  30
ENDBRANCH  26  29
ENDBRANCH  25  26
ENDBRANCH  24  25
ENDBRANCH   4  24
TORSDOF 12
BEGIN_RES LEU A  10
REMARK  2 active torsions:
REMARK  status: ('A' for Active; 'I' for Inactive)
REMARK    1  A    between atoms: CA   and  CB  
REMARK    2  A    between atoms: CB   and  CG  
ROOT
ATOM      1  CA  LEU A  10     -10.775  -4.871   5.898  1.00 25.14     0.177 C 
ENDROOT
BRANCH   1   2
ATOM      2  CB  LEU A  10     -12.191  -4.387   6.226  1.00 17.87     0.038 C 
BRANCH   2   3
ATOM      3  CG  LEU A  10     -12.893  -3.659   5.078  1.00 24.95    -0.020 C 
ATOM      4  CD2 LEU A  10     -13.145  -4.627   3.971  1.00 26.38     0.009 C 
ATOM      5  CD1 LEU A  10     -12.059  -2.489   4.586  1.00 28.12     0.009 C 
ENDBRANCH   2   3
ENDBRANCH   1   2
END_RES LEU A  10
BEGIN_RES CYS A  12
REMARK  2 active torsions:
REMARK  status: ('A' for Active; 'I' for Inactive)
REMARK    3  A    between atoms: CA   and  CB  
REMARK    4  A    between atoms: CB   and  SG  
ROOT
ATOM      6  CA  CYS A  12      -8.555   0.470   8.750  1.00 23.16     0.185 C 
ENDROOT
BRANCH   6   7
ATOM      7  CB  CYS A  12      -9.828   0.763   9.555  1.00 20.43     0.105 C 
BRANCH   7   8
ATOM      8  SG  CYS A  12     -11.401   0.322   8.754  1.00 24.64    -0.180 SA
ATOM      9  H04 CYS A  12     -11.602  -0.998   8.861  1.00 24.64     0.101 HD
ENDBRANCH   7   8
ENDBRANCH   6   7
END_RES CYS A  12
BEGIN_RES GLN A  14
REMARK  3 active torsions:
REMARK  status: ('A' for Active; 'I' for Inactive)
REMARK    5  A    between atoms: CA   and  CB  
REMARK    6  A    between atoms: CB   and  CG  
REMARK    7  A    between atoms: CG   and  CD  
REMARK       I    between atoms: CD   and  NE2 
ROOT
ATOM     10  CA  GLN A  14      -4.645   5.402  11.377  1.00 10.43     0.177 C 
ENDROOT
BRANCH  10  11
ATOM     11  CB  GLN A  14      -5.541   5.549  12.608  1.00 14.45     0.044 C 
BRANCH  11  12
ATOM     12  CG  GLN A  14      -6.619   6.599  12.465  1.00 13.74     0.105 C 
BRANCH  12  13
ATOM     13  CD  GLN A  14      -6.053   7.988  12.291  1.00 16.29     0.215 C 
ATOM     14  NE2 GLN A  14      -6.663   8.765  11.423  1.00  8.57    -0.370 N 
ATOM     15  H06 GLN A  14      -6.330   9.705  11.267  1.00  8.57     0.159 HD
ATOM     16  H07 GLN A  14      -7.465   8.422  10.915  1.00  8.57     0.159 HD
ATOM     17  OE1 GLN A  14      -5.081   8.356  12.932  1.00 23.55    -0.274 OA
ENDBRANCH  12  13
ENDBRANCH  11  12
ENDBRANCH  10  11
END_RES GLN A  14
BEGIN_RES SER A  16
REMARK  2 active torsions:
REMARK  status: ('A' for Active; 'I' for Inactive)
REMARK    8  A    between atoms: CA   and  CB  
REMARK    9  A    between atoms: CB   and  OG  
ROOT
ATOM     18  CA  SER A  16      -1.305  10.019  14.282  1.00  2.34     0.200 C 
ENDROOT
BRANCH  18  19
ATOM     19  CB  SER A  16      -2.242   9.935  15.479  1.00  3.12     0.199 C 
BRANCH  19  20
ATOM     20  OG  SER A  16      -3.452   9.294  15.114  1.00  1.00    -0.398 OA
ATOM     21  H04 SER A  16      -3.287   8.360  14.966  1.00  1.00     0.209 HD
ENDBRANCH  19  20
ENDBRANCH  18  19
END_RES SER A  16
BEGIN_RES LEU A  32
REMARK  2 active torsions:
REMARK  status: ('A' for Active; 'I' for Inactive)
REMARK   10  A    between atoms: CA   and  CB  
REMARK   11  A    between atoms: CB   and  CG  
ROOT
ATOM     22  CA  LEU A  32     -10.272  -4.106   1.587  1.00 16.16     0.177 C 
ENDROOT
BRANCH  22  23
ATOM     23  CB  LEU A  32     -11.613  -3.858   0.880  1.00 12.35     0.038 C 
BRANCH  23  24
ATOM     24  CG  LEU A  32     -12.544  -5.085   0.967  1.00  9.77    -0.020 C 
ATOM     25  CD1 LEU A  32     -13.975  -4.677   0.710  1.00  4.35     0.009 C 
ATOM     26  CD2 LEU A  32     -12.131  -6.143  -0.021  1.00 10.60     0.009 C 
ENDBRANCH  23  24
ENDBRANCH  22  23
END_RES LEU A  32
BEGIN_RES HIS A  38
REMARK  2 active torsions:
REMARK  status: ('A' for Active; 'I' for Inactive)
REMARK   12  A    between atoms: CA   and  CB  
REMARK   13  A    between atoms: CB   and  CG  
ROOT
ATOM     27  CA  HIS A  38     -10.959   4.941   1.621  1.00 16.94     0.182 C 
ENDROOT
BRANCH  27  28
ATOM     28  CB  HIS A  38     -11.810   4.840   2.881  1.00 15.47     0.095 C 
BRANCH  28  29
ATOM     29  CG  HIS A  38     -12.977   3.915   2.749  1.00 18.62     0.053 A 
ATOM     30  CD2 HIS A  38     -14.142   4.046   2.071  1.00 15.06     0.116 A 
ATOM     31  NE2 HIS A  38     -14.850   2.888   2.261  1.00 18.12    -0.359 N 
ATOM     32  CE1 HIS A  38     -14.148   2.075   3.028  1.00 14.78     0.207 A 
ATOM     33  H06 HIS A  38     -15.763   2.689   1.877  1.00 18.12     0.166 HD
ATOM     34  ND1 HIS A  38     -13.014   2.670   3.337  1.00 16.58    -0.247 NA
ENDBRANCH  28  29
ENDBRANCH  27  28
END_RES HIS A  38
BEGIN_RES TRP A  63
REMARK  2 active torsions:
REMARK  status: ('A' for Active; 'I' for Inactive)
REMARK   14  A    between atoms: CA   and  CB  
REMARK   15  A    between atoms: CB   and  CG  
ROOT
ATOM     35  CA  TRP A  63     -22.437   6.257   6.543  1.00 27.04     0.181 C 
ENDROOT
BRANCH  35  36
ATOM     36  CB  TRP A  63     -22.360   6.642   5.068  1.00 31.37     0.075 C 
BRANCH  36  37
ATOM     37  CG  TRP A  63     -20.955   6.705   4.507  1.00 34.37    -0.028 A 
ATOM     38  CD2 TRP A  63     -19.908   5.740   4.680  1.00 33.79    -0.002 A 
ATOM     39  CE3 TRP A  63     -19.792   4.548   5.398  1.00 32.99     0.014 A 
ATOM     40  CE2 TRP A  63     -18.803   6.183   3.919  1.00 35.84     0.042 A 
ATOM     41  CZ3 TRP A  63     -18.598   3.846   5.338  1.00 32.93     0.001 A 
ATOM     42  CH2 TRP A  63     -17.517   4.313   4.573  1.00 39.24     0.002 A 
ATOM     43  CZ2 TRP A  63     -17.601   5.477   3.857  1.00 37.99     0.030 A 
ATOM     44  NE1 TRP A  63     -19.166   7.358   3.319  1.00 37.98    -0.365 N 
ATOM     45  H06 TRP A  63     -18.581   7.911   2.710  1.00 37.98     0.165 HD
ATOM     46  CD1 TRP A  63     -20.457   7.662   3.679  1.00 38.16     0.096 A 
ENDBRANCH  36  37
ENDBRANCH  35  36
END_RES TRP A  63
BEGIN_RES LEU A  66
REMARK  2 active torsions:
REMARK  status: ('A' for Active; 'I' for Inactive)
REMARK   16  A    between atoms: CA   and  CB  
REMARK   17  A    between atoms: CB   and  CG  
ROOT
ATOM     47  CA  LEU A  66     -20.004   6.489  11.120  1.00 10.90     0.177 C 
ENDROOT
BRANCH  47  48
ATOM     48  CB  LEU A  66     -19.626   5.453  10.069  1.00 13.57     0.038 C 
BRANCH  48  49
ATOM     49  CG  LEU A  66     -19.378   4.025  10.552  1.00  8.73    -0.020 C 
ATOM     50  CD1 LEU A  66     -19.177   3.996  12.045  1.00 14.23     0.009 C 
ATOM     51  CD2 LEU A  66     -20.568   3.180  10.175  1.00  1.92     0.009 C 
ENDBRANCH  48  49
ENDBRANCH  47  48
END_RES LEU A  66
BEGIN_RES PHE A  70
REMARK  2 active torsions:
REMARK  status: ('A' for Active; 'I' for Inactive)
REMARK   18  A    between atoms: CA   and  CB  
REMARK   19  A    between atoms: CB   and  CG  
ROOT
ATOM     52  CA  PHE A  70     -14.974   9.434  13.165  1.00  8.78     0.180 C 
ENDROOT
BRANCH  52  53
ATOM     53  CB  PHE A  70     -14.707   9.132  11.681  1.00  6.33     0.073 C 
BRANCH  53  54
ATOM     54  CG  PHE A  70     -15.100   7.738  11.274  1.00  3.42    -0.056 A 
ATOM     55  CD1 PHE A  70     -15.503   7.458   9.977  1.00 13.88     0.007 A 
ATOM     56  CE1 PHE A  70     -15.913   6.162   9.616  1.00 12.71     0.001 A 
ATOM     57  CZ  PHE A  70     -15.919   5.138  10.563  1.00  4.21     0.000 A 
ATOM     58  CE2 PHE A  70     -15.517   5.405  11.859  1.00  2.83     0.001 A 
ATOM     59  CD2 PHE A  70     -15.109   6.703  12.210  1.00  1.00     0.007 A 
ENDBRANCH  53  54
ENDBRANCH  52  53
END_RES PHE A  70
BEGIN_RES TYR A  73
REMARK  3 active torsions:
REMARK  status: ('A' for Active; 'I' for Inactive)
REMARK   20  A    between atoms: CA   and  CB  
REMARK   21  A    between atoms: CB   and  CG  
REMARK   22  A    between atoms: CZ   and  OH  
ROOT
ATOM     60  CA  TYR A  73     -13.212  10.166  17.260  1.00 12.17     0.180 C 
ENDROOT
BRANCH  60  61
ATOM     61  CB  TYR A  73     -13.301   8.846  16.517  1.00 12.84     0.073 C 
BRANCH  61  62
ATOM     62  CG  TYR A  73     -13.660   7.702  17.400  1.00 15.89    -0.056 A 
ATOM     63  CD1 TYR A  73     -13.638   7.829  18.771  1.00 16.00     0.010 A 
ATOM     64  CE1 TYR A  73     -13.944   6.750  19.601  1.00 13.55     0.037 A 
ATOM     65  CZ  TYR A  73     -14.274   5.534  19.036  1.00 18.13     0.065 A 
ATOM     66  CE2 TYR A  73     -14.304   5.382  17.669  1.00 15.89     0.037 A 
ATOM     67  CD2 TYR A  73     -13.997   6.467  16.858  1.00 21.86     0.010 A 
BRANCH  65  68
ATOM     68  OH  TYR A  73     -14.584   4.460  19.833  1.00 12.12    -0.361 OA
ATOM     69  H08 TYR A  73     -14.480   4.706  20.756  1.00 12.12     0.217 HD
ENDBRANCH  65  68
ENDBRANCH  61  62
ENDBRANCH  60  61
END_RES TYR A  73
BEGIN_RES PHE A  77
REMARK  2 active torsions:
REMARK  status: ('A' for Active; 'I' for Inactive)
REMARK   23  A    between atoms: CA   and  CB  
REMARK   24  A    between atoms: CB   and  CG  
ROOT
ATOM     70  CA  PHE A  77      -8.400  10.581  20.110  1.00 17.17     0.180 C 
ENDROOT
BRANCH  70  71
ATOM     71  CB  PHE A  77      -8.228   9.750  18.851  1.00 10.44     0.073 C 
BRANCH  71  72
ATOM     72  CG  PHE A  77      -7.805   8.339  19.113  1.00  6.07    -0.056 A 
ATOM     73  CD2 PHE A  77      -7.015   7.666  18.210  1.00  9.61     0.007 A 
ATOM     74  CE2 PHE A  77      -6.616   6.355  18.446  1.00  1.00     0.001 A 
ATOM     75  CZ  PHE A  77      -7.012   5.711  19.605  1.00  1.92     0.000 A 
ATOM     76  CE1 PHE A  77      -7.801   6.370  20.520  1.00  9.25     0.001 A 
ATOM     77  CD1 PHE A  77      -8.196   7.684  20.270  1.00  9.63     0.007 A 
ENDBRANCH  71  72
ENDBRANCH  70  71
END_RES PHE A  77
BEGIN_RES LEU A  96
REMARK  2 active torsions:
REMARK  status: ('A' for Active; 'I' for Inactive)
REMARK   25  A    between atoms: CA   and  CB  
REMARK   26  A    between atoms: CB   and  CG  
ROOT
ATOM     78  CA  LEU A  96       0.717   6.481  17.359  1.00 16.08     0.177 C 
ENDROOT
BRANCH  78  79
ATOM     79  CB  LEU A  96      -0.370   7.101  18.230  1.00 18.83     0.038 C 
BRANCH  79  80
ATOM     80  CG  LEU A  96      -0.176   6.892  19.732  1.00 19.03    -0.020 C 
ATOM     81  CD1 LEU A  96       0.515   8.106  20.308  1.00 28.17     0.009 C 
ATOM     82  CD2 LEU A  96      -1.513   6.731  20.419  1.00 22.01     0.009 C 
ENDBRANCH  79  80
ENDBRANCH  78  79
END_RES LEU A  96
BEGIN_RES VAL A  98
REMARK  1 active torsions:
REMARK  status: ('A' for Active; 'I' for Inactive)
REMARK   27  A    between atoms: CA   and  CB  
ROOT
ATOM     83  CA  VAL A  98      -3.928   2.082  14.897  1.00 19.83     0.180 C 
ENDROOT
BRANCH  83  84
ATOM     84  CB  VAL A  98      -5.203   2.807  15.281  1.00 17.87     0.009 C 
ATOM     85  CG2 VAL A  98      -4.944   4.288  15.385  1.00 29.90     0.012 C 
ATOM     86  CG1 VAL A  98      -5.722   2.258  16.593  1.00 14.79     0.012 C 
ENDBRANCH  83  84
END_RES VAL A  98
BEGIN_RES ASN A 112
REMARK  2 active torsions:
REMARK  status: ('A' for Active; 'I' for Inactive)
REMARK   28  A    between atoms: CA   and  CB  
REMARK   29  A    between atoms: CB   and  CG  
REMARK       I    between atoms: CG   and  ND2 
ROOT
ATOM     87  CA  ASN A 112     -11.790  -8.793  14.069  1.00 37.70     0.185 C 
ENDROOT
BRANCH  87  88
ATOM     88  CB  ASN A 112     -12.992  -7.945  14.465  1.00 26.24     0.137 C 
BRANCH  88  89
ATOM     89  CG  ASN A 112     -13.818  -8.567  15.568  1.00 21.77     0.217 C 
ATOM     90  ND2 ASN A 112     -14.970  -9.125  15.197  1.00  9.31    -0.370 N 
ATOM     91  H04 ASN A 112     -15.569  -9.555  15.888  1.00  9.31     0.159 HD
ATOM     92  H05 ASN A 112     -15.245  -9.117  14.225  1.00  9.31     0.159 HD
ATOM     93  OD1 ASN A 112     -13.432  -8.544  16.743  1.00 21.61    -0.274 OA
ENDBRANCH  88  89
ENDBRANCH  87  88
END_RES ASN A 112
BEGIN_RES PHE A 114
REMARK  2 active torsions:
REMARK  status: ('A' for Active; 'I' for Inactive)
REMARK   30  A    between atoms: CA   and  CB  
REMARK   31  A    between atoms: CB   and  CG  
ROOT
ATOM     94  CA  PHE A 114      -7.754  -3.619  17.012  1.00 26.06     0.180 C 
ENDROOT
BRANCH  94  95
ATOM     95  CB  PHE A 114      -8.890  -3.080  17.867  1.00 19.95     0.073 C 
BRANCH  95  96
ATOM     96  CG  PHE A 114      -8.735  -1.635  18.215  1.00 17.65    -0.056 A 
ATOM     97  CD1 PHE A 114      -8.290  -0.717  17.267  1.00 13.01     0.007 A 
ATOM     98  CE1 PHE A 114      -8.118   0.620  17.597  1.00  6.74     0.001 A 
ATOM     99  CZ  PHE A 114      -8.394   1.061  18.888  1.00  6.27     0.000 A 
ATOM    100  CE2 PHE A 114      -8.839   0.157  19.840  1.00 17.36     0.001 A 
ATOM    101  CD2 PHE A 114      -9.009  -1.189  19.500  1.00 18.39     0.007 A 
ENDBRANCH  95  96
ENDBRANCH  94  95
END_RES PHE A 114
BEGIN_RES VAL A 116
REMARK  1 active torsions:
REMARK  status: ('A' for Active; 'I' for Inactive)
REMARK   32  A    between atoms: CA   and  CB  
ROOT
ATOM    102  CA  VAL A 116      -2.467   0.283  18.565  1.00 13.48     0.180 C 
ENDROOT
BRANCH 102 103
ATOM    103  CB  VAL A 116      -3.101   1.238  19.599  1.00 20.86     0.009 C 
ATOM    104  CG1 VAL A 116      -2.980   2.682  19.104  1.00 25.01     0.012 C 
ATOM    105  CG2 VAL A 116      -4.539   0.861  19.870  1.00 25.34     0.012 C 
ENDBRANCH 102 103
END_RES VAL A 116
BEGIN_RES ILE A 123
REMARK  2 active torsions:
REMARK  status: ('A' for Active; 'I' for Inactive)
REMARK   33  A    between atoms: CA   and  CB  
REMARK   34  A    between atoms: CB   and  CG1 
ROOT
ATOM    106  CA  ILE A 123       1.557  -1.626  23.222  1.00 15.07     0.180 C 
ENDROOT
BRANCH 106 107
ATOM    107  CB  ILE A 123       1.697  -0.112  23.461  1.00 14.41     0.013 C 
ATOM    108  CG2 ILE A 123       3.109   0.211  23.919  1.00 18.35     0.012 C 
BRANCH 107 109
ATOM    109  CG1 ILE A 123       1.366   0.659  22.185  1.00 15.23     0.002 C 
ATOM    110  CD1 ILE A 123       0.248   1.659  22.355  1.00 14.67     0.005 C 
ENDBRANCH 107 109
ENDBRANCH 106 107
END_RES ILE A 123
BEGIN_RES LEU A 124
REMARK  2 active torsions:
REMARK  status: ('A' for Active; 'I' for Inactive)
REMARK   35  A    between atoms: CA   and  CB  
REMARK   36  A    between atoms: CB   and  CG  
ROOT
ATOM    111  CA  LEU A 124      -2.057  -2.686  23.524  1.00 11.86     0.177 C 
ENDROOT
BRANCH 111 112
ATOM    112  CB  LEU A 124      -2.698  -1.652  24.429  1.00 14.60     0.038 C 
BRANCH 112 113
ATOM    113  CG  LEU A 124      -2.611  -0.250  23.846  1.00 16.19    -0.020 C 
ATOM    114  CD1 LEU A 124      -4.021   0.208  23.427  1.00 22.07     0.009 C 
ATOM    115  CD2 LEU A 124      -1.997   0.680  24.863  1.00  9.12     0.009 C 
ENDBRANCH 112 113
ENDBRANCH 111 112
END_RES LEU A 124
BEGIN_RES PHE A 126
REMARK  2 active torsions:
REMARK  status: ('A' for Active; 'I' for Inactive)
REMARK   37  A    between atoms: CA   and  CB  
REMARK   38  A    between atoms: CB   and  CG  
ROOT
ATOM    116  CA  PHE A 126      -8.784  -4.792  22.233  1.00 23.15     0.180 C 
ENDROOT
BRANCH 116 117
ATOM    117  CB  PHE A 126      -9.823  -4.011  21.461  1.00 20.65     0.073 C 
BRANCH 117 118
ATOM    118  CG  PHE A 126     -10.948  -3.540  22.297  1.00 23.65    -0.056 A 
ATOM    119  CD2 PHE A 126     -10.758  -2.544  23.239  1.00 36.63     0.007 A 
ATOM    120  CE2 PHE A 126     -11.825  -2.097  24.030  1.00 36.27     0.001 A 
ATOM    121  CZ  PHE A 126     -13.085  -2.656  23.872  1.00 18.06     0.000 A 
ATOM    122  CE1 PHE A 126     -13.278  -3.648  22.932  1.00  5.50     0.001 A 
ATOM    123  CD1 PHE A 126     -12.211  -4.084  22.146  1.00 15.29     0.007 A 
ENDBRANCH 117 118
ENDBRANCH 116 117
END_RES PHE A 126
BEGIN_RES TRP A 131
REMARK  2 active torsions:
REMARK  status: ('A' for Active; 'I' for Inactive)
REMARK   39  A    between atoms: CA   and  CB  
REMARK   40  A    between atoms: CB   and  CG  
ROOT
ATOM    124  CA  TRP A 131      -8.096  -3.335  26.542  1.00 14.52     0.181 C 
ENDROOT
BRANCH 124 125
ATOM    125  CB  TRP A 131      -7.651  -1.877  26.607  1.00 13.06     0.075 C 
BRANCH 125 126
ATOM    126  CG  TRP A 131      -8.032  -1.056  25.395  1.00 16.97    -0.028 A 
ATOM    127  CD2 TRP A 131      -9.111  -0.122  25.303  1.00 11.34    -0.002 A 
ATOM    128  CE2 TRP A 131      -9.096   0.415  24.001  1.00  5.87     0.042 A 
ATOM    129  CE3 TRP A 131     -10.092   0.312  26.203  1.00  3.80     0.014 A 
ATOM    130  CZ2 TRP A 131     -10.023   1.368  23.576  1.00  1.35     0.030 A 
ATOM    131  NE1 TRP A 131      -8.057  -0.166  23.328  1.00 13.90    -0.365 N 
ATOM    132  CH2 TRP A 131     -10.973   1.776  24.479  1.00  1.00     0.002 A 
ATOM    133  CZ3 TRP A 131     -11.014   1.254  25.785  1.00  1.00     0.001 A 
ATOM    134  CD1 TRP A 131      -7.421  -1.049  24.171  1.00 17.22     0.096 A 
ATOM    135  H07 TRP A 131      -7.798   0.021  22.371  1.00 13.90     0.165 HD
ENDBRANCH 125 126
ENDBRANCH 124 125
END_RES TRP A 131
BEGIN_RES LEU A 148
REMARK  2 active torsions:
REMARK  status: ('A' for Active; 'I' for Inactive)
REMARK   41  A    between atoms: CA   and  CB  
REMARK   42  A    between atoms: CB   and  CG  
ROOT
ATOM    136  CA  LEU A 148      -9.018   3.259  29.295  1.00 16.99     0.177 C 
ENDROOT
BRANCH 136 137
ATOM    137  CB  LEU A 148      -8.166   2.574  28.236  1.00  6.39     0.038 C 
BRANCH 137 138
ATOM    138  CG  LEU A 148      -7.535   3.365  27.108  1.00  1.00    -0.020 C 
ATOM    139  CD2 LEU A 148      -8.596   4.026  26.279  1.00  1.00     0.009 C 
ATOM    140  CD1 LEU A 148      -6.712   2.411  26.261  1.00  2.71     0.009 C 
ENDBRANCH 137 138
ENDBRANCH 136 137
END_RES LEU A 148
BEGIN_RES THR A 154
REMARK  2 active torsions:
REMARK  status: ('A' for Active; 'I' for Inactive)
REMARK   43  A    between atoms: CA   and  CB  
REMARK   44  A    between atoms: CB   and  OG1 
ROOT
ATOM    141  CA  THR A 154     -15.990   3.959  24.426  1.00 20.45     0.205 C 
ENDROOT
BRANCH 141 142
ATOM    142  CB  THR A 154     -14.777   4.829  24.694  1.00 16.79     0.146 C 
ATOM    143  CG2 THR A 154     -13.622   4.404  23.808  1.00 20.24     0.042 C 
BRANCH 142 144
ATOM    144  OG1 THR A 154     -15.109   6.192  24.400  1.00 18.84    -0.393 OA
ATOM    145  H06 THR A 154     -15.345   6.647  25.211  1.00 18.84     0.210 HD
ENDBRANCH 142 144
ENDBRANCH 141 142
END_RES THR A 154
BEGIN_RES VAL A 158
REMARK  1 active torsions:
REMARK  status: ('A' for Active; 'I' for Inactive)
REMARK   45  A    between atoms: CA   and  CB  
ROOT
ATOM    146  CA  VAL A 158     -15.487  -0.189  19.892  1.00 15.49     0.180 C 
ENDROOT
BRANCH 146 147
ATOM    147  CB  VAL A 158     -14.291  -0.273  20.822  1.00  6.52     0.009 C 
ATOM    148  CG1 VAL A 158     -13.242  -1.210  20.269  1.00  1.00     0.012 C 
ATOM    149  CG2 VAL A 158     -13.728   1.102  21.005  1.00  5.99     0.012 C 
ENDBRANCH 146 147
END_RES VAL A 158
BEGIN_RES LEU A 161
REMARK  2 active torsions:
REMARK  status: ('A' for Active; 'I' for Inactive)
REMARK   46  A    between atoms: CA   and  CB  
REMARK   47  A    between atoms: CB   and  CG  
ROOT
ATOM    150  CA  LEU A 161     -18.031  -1.858  15.935  1.00 13.31     0.177 C 
ENDROOT
BRANCH 150 151
ATOM    151  CB  LEU A 161     -17.046  -0.706  16.001  1.00 14.13     0.038 C 
BRANCH 151 152
ATOM    152  CG  LEU A 161     -17.440   0.562  15.255  1.00 19.39    -0.020 C 
ATOM    153  CD2 LEU A 161     -16.588   1.722  15.710  1.00 27.75     0.009 C 
ATOM    154  CD1 LEU A 161     -18.892   0.853  15.522  1.00 18.59     0.009 C 
ENDBRANCH 151 152
ENDBRANCH 150 151
END_RES LEU A 161
BEGIN_RES GLN A 168
REMARK  3 active torsions:
REMARK  status: ('A' for Active; 'I' for Inactive)
REMARK   48  A    between atoms: CA   and  CB  
REMARK   49  A    between atoms: CB   and  CG  
REMARK   50  A    between atoms: CG   and  CD  
REMARK       I    between atoms: CD   and  NE2 
ROOT
ATOM    155  CA  GLN A 168     -22.035  -6.020   8.155  1.00 30.94     0.177 C 
ENDROOT
BRANCH 155 156
ATOM    156  CB  GLN A 168     -23.054  -5.218   8.946  1.00 41.76     0.044 C 
BRANCH 156 157
ATOM    157  CG  GLN A 168     -24.342  -5.945   9.221  1.00 61.20     0.105 C 
BRANCH 157 158
ATOM    158  CD  GLN A 168     -24.438  -6.399  10.665  1.00 75.49     0.215 C 
ATOM    159  NE2 GLN A 168     -25.231  -5.677  11.459  1.00 85.00    -0.370 N 
ATOM    160  H06 GLN A 168     -25.335  -5.927  12.432  1.00 85.00     0.159 HD
ATOM    161  H07 GLN A 168     -25.728  -4.879  11.086  1.00 85.00     0.159 HD
ATOM    162  OE1 GLN A 168     -23.804  -7.383  11.069  1.00 73.64    -0.274 OA
ENDBRANCH 157 158
ENDBRANCH 156 157
ENDBRANCH 155 156
END_RES GLN A 168
ENDMDL
MODEL 3
REMARK VINA RESULT:     -12.7      2.776      7.488
REMARK  Name = human_CD1d_CHAPS_pred.rank_0
REMARK  12 active torsions:
REMARK  status: ('A' for Active; 'I' for Inactive)
REMARK    1  A    between atoms: N_2  and  C_14
REMARK    2  A    between atoms: S_4  and  C_23
REMARK    3  A    between atoms: C_5  and  C_8
REMARK    4  A    between atoms: C_5  and  C_24
REMARK    5  A    between atoms: N_6  and  C_18
REMARK    6  A    between atoms: N_6  and  C_21
REMARK    7  A    between atoms: C_8  and  C_10
REMARK    8  A    between atoms: C_10  and  C_12
REMARK    9  A    between atoms: C_14  and  C_16
REMARK   10  A    between atoms: C_16  and  C_18
REMARK   11  A    between atoms: C_21  and  C_22
REMARK   12  A    between atoms: C_22  and  C_23
REMARK                            x       y       z     vdW  Elec       q    Type
REMARK                         _______ _______ _______ _____ _____    ______ ____
ROOT
ATOM      1  O   UNL     1     -14.760  -1.950   8.259  0.00  0.00    +0.000 OA
ATOM      2  O   UNL     1     -12.532  -1.604  13.208  0.00  0.00    +0.000 OA
ATOM      3  O   UNL     1     -10.302   1.967  13.173  0.00  0.00    +0.000 OA
ATOM      4  C   UNL     1     -10.865   2.288  16.053  0.00  0.00    +0.000 C 
ATOM      5  C   UNL     1     -11.489   1.287  17.060  0.00  0.00    +0.000 C 
ATOM      6  C   UNL     1     -12.520   0.478  16.295  0.00  0.00    +0.000 C 
ATOM      7  C   UNL     1     -12.298   0.852  14.840  0.00  0.00    +0.000 C 
ATOM      8  C   UNL     1     -11.939   2.335  14.922  0.00  0.00    +0.000 C 
ATOM      9  C   UNL     1     -11.472   2.732  13.523  0.00  0.00    +0.000 C 
ATOM     10  C   UNL     1     -12.609   2.498  12.458  0.00  0.00    +0.000 C 
ATOM     11  C   UNL     1     -13.179   1.073  12.456  0.00  0.00    +0.000 C 
ATOM     12  C   UNL     1     -13.455   0.551  13.865  0.00  0.00    +0.000 C 
ATOM     13  C   UNL     1     -13.657  -0.997  13.795  0.00  0.00    +0.000 C 
ATOM     14  C   UNL     1     -14.963  -1.226  12.950  0.00  0.00    +0.000 C 
ATOM     15  C   UNL     1     -15.085  -0.492  11.663  0.00  0.00    +0.000 C 
ATOM     16  C   UNL     1     -14.440   0.914  11.528  0.00  0.00    +0.000 C 
ATOM     17  C   UNL     1     -14.039   1.286  10.070  0.00  0.00    +0.000 C 
ATOM     18  C   UNL     1     -13.874   0.126   9.090  0.00  0.00    +0.000 C 
ATOM     19  C   UNL     1     -14.913  -0.938   9.283  0.00  0.00    +0.000 C 
ATOM     20  C   UNL     1     -14.663  -1.522  10.623  0.00  0.00    +0.000 C 
ATOM     21  C   UNL     1     -15.517   1.838  11.876  0.00  0.00    +0.000 C 
ATOM     22  C   UNL     1     -13.075   3.250  15.364  0.00  0.00    +0.000 C 
ENDROOT
BRANCH   4  24
ATOM     23  C   UNL     1      -9.065   4.027  16.419  0.00  0.00    +0.000 C 
ATOM     24  C   UNL     1     -10.480   3.615  16.725  0.00  0.00    +0.000 C 
BRANCH  24  25
ATOM     25  C   UNL     1     -10.653   3.441  18.276  0.00  0.00    +0.000 C 
BRANCH  25  26
ATOM     26  C   UNL     1     -10.025   4.623  18.988  0.00  0.00    +0.000 C 
BRANCH  26  29
ATOM     27  N   UNL     1      -8.603   4.374  20.981  0.00  0.00    +0.000 NA
ATOM     28  O   UNL     1     -10.802   3.908  21.145  0.00  0.00    +0.000 OA
ATOM     29  C   UNL     1      -9.845   4.239  20.465  0.00  0.00    +0.000 C 
BRANCH  27  30
ATOM     30  C   UNL     1      -8.387   4.184  22.458  0.00  0.00    +0.000 C 
BRANCH  30  31
ATOM     31  C   UNL     1      -7.094   4.863  22.945  0.00  0.00    +0.000 C 
BRANCH  31  32
ATOM     32  C   UNL     1      -5.930   3.948  22.866  0.00  0.00    +0.000 C 
BRANCH  32  33
ATOM     33  N   UNL     1      -4.689   4.633  23.278  0.00  0.00    +0.000 N 
ATOM     34  C   UNL     1      -3.874   4.805  22.094  0.00  0.00    +0.000 C 
ATOM     35  C   UNL     1      -4.935   5.929  23.889  0.00  0.00    +0.000 C 
BRANCH  33  36
ATOM     36  C   UNL     1      -3.956   3.750  24.260  0.00  0.00    +0.000 C 
BRANCH  36  37
ATOM     37  C   UNL     1      -3.140   4.539  25.343  0.00  0.00    +0.000 C 
BRANCH  37  38
ATOM     38  C   UNL     1      -1.682   4.213  25.207  0.00  0.00    +0.000 C 
BRANCH  38  39
ATOM     39  S   UNL     1      -0.784   5.661  25.311  0.00  0.00    +0.000 S 
ATOM     40  O   UNL     1      -1.564   6.734  24.722  0.00  0.00    +0.000 OA
ATOM     41  O   UNL     1       0.518   5.534  24.635  0.00  0.00    +0.000 OA
ATOM     42  O   UNL     1      -0.526   5.930  26.737  0.00  0.00    +0.000 OA
ENDBRANCH  38  39
ENDBRANCH  37  38
ENDBRANCH  36  37
ENDBRANCH  33  36
ENDBRANCH  32  33
ENDBRANCH  31  32
ENDBRANCH  30  31
ENDBRANCH  27  30
ENDBRANCH  26  29
ENDBRANCH  25  26
ENDBRANCH  24  25
ENDBRANCH   4  24
TORSDOF 12
BEGIN_RES LEU A  10
REMARK  2 active torsions:
REMARK  status: ('A' for Active; 'I' for Inactive)
REMARK    1  A    between atoms: CA   and  CB  
REMARK    2  A    between atoms: CB   and  CG  
ROOT
ATOM      1  CA  LEU A  10     -10.775  -4.871   5.898  1.00 25.14     0.177 C 
ENDROOT
BRANCH   1   2
ATOM      2  CB  LEU A  10     -12.191  -4.387   6.226  1.00 17.87     0.038 C 
BRANCH   2   3
ATOM      3  CG  LEU A  10     -12.655  -3.183   5.403  1.00 24.95    -0.020 C 
ATOM      4  CD2 LEU A  10     -12.201  -1.931   6.075  1.00 26.38     0.009 C 
ATOM      5  CD1 LEU A  10     -14.165  -3.186   5.240  1.00 28.12     0.009 C 
ENDBRANCH   2   3
ENDBRANCH   1   2
END_RES LEU A  10
BEGIN_RES CYS A  12
REMARK  2 active torsions:
REMARK  status: ('A' for Active; 'I' for Inactive)
REMARK    3  A    between atoms: CA   and  CB  
REMARK    4  A    between atoms: CB   and  SG  
ROOT
ATOM      6  CA  CYS A  12      -8.555   0.470   8.750  1.00 23.16     0.185 C 
ENDROOT
BRANCH   6   7
ATOM      7  CB  CYS A  12      -9.828   0.763   9.555  1.00 20.43     0.105 C 
BRANCH   7   8
ATOM      8  SG  CYS A  12     -10.588   2.394   9.285  1.00 24.64    -0.180 SA
ATOM      9  H04 CYS A  12     -11.609   2.558  10.136  1.00 24.64     0.101 HD
ENDBRANCH   7   8
ENDBRANCH   6   7
END_RES CYS A  12
BEGIN_RES GLN A  14
REMARK  3 active torsions:
REMARK  status: ('A' for Active; 'I' for Inactive)
REMARK    5  A    between atoms: CA   and  CB  
REMARK    6  A    between atoms: CB   and  CG  
REMARK    7  A    between atoms: CG   and  CD  
REMARK       I    between atoms: CD   and  NE2 
ROOT
ATOM     10  CA  GLN A  14      -4.645   5.402  11.377  1.00 10.43     0.177 C 
ENDROOT
BRANCH  10  11
ATOM     11  CB  GLN A  14      -5.541   5.549  12.608  1.00 14.45     0.044 C 
BRANCH  11  12
ATOM     12  CG  GLN A  14      -6.509   6.708  12.532  1.00 13.74     0.105 C 
BRANCH  12  13
ATOM     13  CD  GLN A  14      -5.839   8.037  12.787  1.00 16.29     0.215 C 
ATOM     14  NE2 GLN A  14      -5.065   8.110  13.848  1.00  8.57    -0.370 N 
ATOM     15  H06 GLN A  14      -4.590   8.973  14.067  1.00  8.57     0.159 HD
ATOM     16  H07 GLN A  14      -4.946   7.302  14.443  1.00  8.57     0.159 HD
ATOM     17  OE1 GLN A  14      -6.013   8.984  12.036  1.00 23.55    -0.274 OA
ENDBRANCH  12  13
ENDBRANCH  11  12
ENDBRANCH  10  11
END_RES GLN A  14
BEGIN_RES SER A  16
REMARK  2 active torsions:
REMARK  status: ('A' for Active; 'I' for Inactive)
REMARK    8  A    between atoms: CA   and  CB  
REMARK    9  A    between atoms: CB   and  OG  
ROOT
ATOM     18  CA  SER A  16      -1.305  10.019  14.282  1.00  2.34     0.200 C 
ENDROOT
BRANCH  18  19
ATOM     19  CB  SER A  16      -2.242   9.935  15.479  1.00  3.12     0.199 C 
BRANCH  19  20
ATOM     20  OG  SER A  16      -1.976   8.764  16.232  1.00  1.00    -0.398 OA
ATOM     21  H04 SER A  16      -2.423   8.016  15.828  1.00  1.00     0.209 HD
ENDBRANCH  19  20
ENDBRANCH  18  19
END_RES SER A  16
BEGIN_RES LEU A  32
REMARK  2 active torsions:
REMARK  status: ('A' for Active; 'I' for Inactive)
REMARK   10  A    between atoms: CA   and  CB  
REMARK   11  A    between atoms: CB   and  CG  
ROOT
ATOM     22  CA  LEU A  32     -10.272  -4.106   1.587  1.00 16.16     0.177 C 
ENDROOT
BRANCH  22  23
ATOM     23  CB  LEU A  32     -11.613  -3.858   0.880  1.00 12.35     0.038 C 
BRANCH  23  24
ATOM     24  CG  LEU A  32     -12.537  -5.091   0.951  1.00  9.77    -0.020 C 
ATOM     25  CD1 LEU A  32     -13.090  -5.253   2.347  1.00  4.35     0.009 C 
ATOM     26  CD2 LEU A  32     -13.670  -4.971  -0.034  1.00 10.60     0.009 C 
ENDBRANCH  23  24
ENDBRANCH  22  23
END_RES LEU A  32
BEGIN_RES HIS A  38
REMARK  2 active torsions:
REMARK  status: ('A' for Active; 'I' for Inactive)
REMARK   12  A    between atoms: CA   and  CB  
REMARK   13  A    between atoms: CB   and  CG  
ROOT
ATOM     27  CA  HIS A  38     -10.959   4.941   1.621  1.00 16.94     0.182 C 
ENDROOT
BRANCH  27  28
ATOM     28  CB  HIS A  38     -11.810   4.840   2.881  1.00 15.47     0.095 C 
BRANCH  28  29
ATOM     29  CG  HIS A  38     -12.985   3.926   2.745  1.00 18.62     0.053 A 
ATOM     30  CD2 HIS A  38     -14.155   4.076   2.079  1.00 15.06     0.116 A 
ATOM     31  NE2 HIS A  38     -14.870   2.919   2.257  1.00 18.12    -0.359 N 
ATOM     32  CE1 HIS A  38     -14.167   2.089   3.004  1.00 14.78     0.207 A 
ATOM     33  H06 HIS A  38     -15.787   2.733   1.878  1.00 18.12     0.166 HD
ATOM     34  ND1 HIS A  38     -13.026   2.672   3.313  1.00 16.58    -0.247 NA
ENDBRANCH  28  29
ENDBRANCH  27  28
END_RES HIS A  38
BEGIN_RES TRP A  63
REMARK  2 active torsions:
REMARK  status: ('A' for Active; 'I' for Inactive)
REMARK   14  A    between atoms: CA   and  CB  
REMARK   15  A    between atoms: CB   and  CG  
ROOT
ATOM     35  CA  TRP A  63     -22.437   6.257   6.543  1.00 27.04     0.181 C 
ENDROOT
BRANCH  35  36
ATOM     36  CB  TRP A  63     -22.360   6.642   5.068  1.00 31.37     0.075 C 
BRANCH  36  37
ATOM     37  CG  TRP A  63     -20.954   6.726   4.512  1.00 34.37    -0.028 A 
ATOM     38  CD2 TRP A  63     -19.906   5.758   4.654  1.00 33.79    -0.002 A 
ATOM     39  CE3 TRP A  63     -19.790   4.541   5.330  1.00 32.99     0.014 A 
ATOM     40  CE2 TRP A  63     -18.800   6.229   3.912  1.00 35.84     0.042 A 
ATOM     41  CZ3 TRP A  63     -18.594   3.843   5.248  1.00 32.93     0.001 A 
ATOM     42  CH2 TRP A  63     -17.513   4.338   4.502  1.00 39.24     0.002 A 
ATOM     43  CZ2 TRP A  63     -17.597   5.526   3.828  1.00 37.99     0.030 A 
ATOM     44  NE1 TRP A  63     -19.163   7.423   3.352  1.00 37.98    -0.365 N 
ATOM     45  H06 TRP A  63     -18.577   7.998   2.764  1.00 37.98     0.165 HD
ATOM     46  CD1 TRP A  63     -20.455   7.712   3.720  1.00 38.16     0.096 A 
ENDBRANCH  36  37
ENDBRANCH  35  36
END_RES TRP A  63
BEGIN_RES LEU A  66
REMARK  2 active torsions:
REMARK  status: ('A' for Active; 'I' for Inactive)
REMARK   16  A    between atoms: CA   and  CB  
REMARK   17  A    between atoms: CB   and  CG  
ROOT
ATOM     47  CA  LEU A  66     -20.004   6.489  11.120  1.00 10.90     0.177 C 
ENDROOT
BRANCH  47  48
ATOM     48  CB  LEU A  66     -19.626   5.453  10.069  1.00 13.57     0.038 C 
BRANCH  48  49
ATOM     49  CG  LEU A  66     -19.377   4.025  10.552  1.00  8.73    -0.020 C 
ATOM     50  CD1 LEU A  66     -19.234   3.989  12.052  1.00 14.23     0.009 C 
ATOM     51  CD2 LEU A  66     -20.540   3.166  10.124  1.00  1.92     0.009 C 
ENDBRANCH  48  49
ENDBRANCH  47  48
END_RES LEU A  66
BEGIN_RES PHE A  70
REMARK  2 active torsions:
REMARK  status: ('A' for Active; 'I' for Inactive)
REMARK   18  A    between atoms: CA   and  CB  
REMARK   19  A    between atoms: CB   and  CG  
ROOT
ATOM     52  CA  PHE A  70     -14.974   9.434  13.165  1.00  8.78     0.180 C 
ENDROOT
BRANCH  52  53
ATOM     53  CB  PHE A  70     -14.707   9.132  11.681  1.00  6.33     0.073 C 
BRANCH  53  54
ATOM     54  CG  PHE A  70     -13.944   7.854  11.458  1.00  3.42    -0.056 A 
ATOM     55  CD1 PHE A  70     -13.421   7.138  12.524  1.00 13.88     0.007 A 
ATOM     56  CE1 PHE A  70     -12.669   5.971  12.306  1.00 12.71     0.001 A 
ATOM     57  CZ  PHE A  70     -12.440   5.515  11.007  1.00  4.21     0.000 A 
ATOM     58  CE2 PHE A  70     -12.959   6.219   9.936  1.00  2.83     0.001 A 
ATOM     59  CD2 PHE A  70     -13.710   7.385  10.165  1.00  1.00     0.007 A 
ENDBRANCH  53  54
ENDBRANCH  52  53
END_RES PHE A  70
BEGIN_RES TYR A  73
REMARK  3 active torsions:
REMARK  status: ('A' for Active; 'I' for Inactive)
REMARK   20  A    between atoms: CA   and  CB  
REMARK   21  A    between atoms: CB   and  CG  
REMARK   22  A    between atoms: CZ   and  OH  
ROOT
ATOM     60  CA  TYR A  73     -13.212  10.166  17.260  1.00 12.17     0.180 C 
ENDROOT
BRANCH  60  61
ATOM     61  CB  TYR A  73     -13.301   8.846  16.517  1.00 12.84     0.073 C 
BRANCH  61  62
ATOM     62  CG  TYR A  73     -13.415   7.672  17.425  1.00 15.89    -0.056 A 
ATOM     63  CD1 TYR A  73     -12.958   7.729  18.723  1.00 16.00     0.010 A 
ATOM     64  CE1 TYR A  73     -13.036   6.621  19.566  1.00 13.55     0.037 A 
ATOM     65  CZ  TYR A  73     -13.581   5.445  19.089  1.00 18.13     0.065 A 
ATOM     66  CE2 TYR A  73     -14.046   5.362  17.798  1.00 15.89     0.037 A 
ATOM     67  CD2 TYR A  73     -13.961   6.476  16.972  1.00 21.86     0.010 A 
BRANCH  65  68
ATOM     68  OH  TYR A  73     -13.673   4.344  19.904  1.00 12.12    -0.361 OA
ATOM     69  H08 TYR A  73     -13.252   3.594  19.477  1.00 12.12     0.217 HD
ENDBRANCH  65  68
ENDBRANCH  61  62
ENDBRANCH  60  61
END_RES TYR A  73
BEGIN_RES PHE A  77
REMARK  2 active torsions:
REMARK  status: ('A' for Active; 'I' for Inactive)
REMARK   23  A    between atoms: CA   and  CB  
REMARK   24  A    between atoms: CB   and  CG  
ROOT
ATOM     70  CA  PHE A  77      -8.400  10.581  20.110  1.00 17.17     0.180 C 
ENDROOT
BRANCH  70  71
ATOM     71  CB  PHE A  77      -8.228   9.750  18.851  1.00 10.44     0.073 C 
BRANCH  71  72
ATOM     72  CG  PHE A  77      -7.108   8.761  18.930  1.00  6.07    -0.056 A 
ATOM     73  CD2 PHE A  77      -6.000   8.893  18.124  1.00  9.61     0.007 A 
ATOM     74  CE2 PHE A  77      -4.954   7.980  18.192  1.00  1.00     0.001 A 
ATOM     75  CZ  PHE A  77      -5.018   6.921  19.082  1.00  1.92     0.000 A 
ATOM     76  CE1 PHE A  77      -6.118   6.775  19.896  1.00  9.25     0.001 A 
ATOM     77  CD1 PHE A  77      -7.161   7.698  19.816  1.00  9.63     0.007 A 
ENDBRANCH  71  72
ENDBRANCH  70  71
END_RES PHE A  77
BEGIN_RES LEU A  96
REMARK  2 active torsions:
REMARK  status: ('A' for Active; 'I' for Inactive)
REMARK   25  A    between atoms: CA   and  CB  
REMARK   26  A    between atoms: CB   and  CG  
ROOT
ATOM     78  CA  LEU A  96       0.717   6.481  17.359  1.00 16.08     0.177 C 
ENDROOT
BRANCH  78  79
ATOM     79  CB  LEU A  96      -0.370   7.101  18.230  1.00 18.83     0.038 C 
BRANCH  79  80
ATOM     80  CG  LEU A  96      -0.097   7.031  19.732  1.00 19.03    -0.020 C 
ATOM     81  CD1 LEU A  96       0.660   8.270  20.149  1.00 28.17     0.009 C 
ATOM     82  CD2 LEU A  96      -1.396   6.981  20.503  1.00 22.01     0.009 C 
ENDBRANCH  79  80
ENDBRANCH  78  79
END_RES LEU A  96
BEGIN_RES VAL A  98
REMARK  1 active torsions:
REMARK  status: ('A' for Active; 'I' for Inactive)
REMARK   27  A    between atoms: CA   and  CB  
ROOT
ATOM     83  CA  VAL A  98      -3.928   2.082  14.897  1.00 19.83     0.180 C 
ENDROOT
BRANCH  83  84
ATOM     84  CB  VAL A  98      -5.203   2.807  15.281  1.00 17.87     0.009 C 
ATOM     85  CG2 VAL A  98      -4.900   4.246  15.611  1.00 29.90     0.012 C 
ATOM     86  CG1 VAL A  98      -5.847   2.109  16.460  1.00 14.79     0.012 C 
ENDBRANCH  83  84
END_RES VAL A  98
BEGIN_RES ASN A 112
REMARK  2 active torsions:
REMARK  status: ('A' for Active; 'I' for Inactive)
REMARK   28  A    between atoms: CA   and  CB  
REMARK   29  A    between atoms: CB   and  CG  
REMARK       I    between atoms: CG   and  ND2 
ROOT
ATOM     87  CA  ASN A 112     -11.790  -8.793  14.069  1.00 37.70     0.185 C 
ENDROOT
BRANCH  87  88
ATOM     88  CB  ASN A 112     -12.992  -7.945  14.465  1.00 26.24     0.137 C 
BRANCH  88  89
ATOM     89  CG  ASN A 112     -13.821  -8.570  15.564  1.00 21.77     0.217 C 
ATOM     90  ND2 ASN A 112     -14.974  -9.123  15.189  1.00  9.31    -0.370 N 
ATOM     91  H04 ASN A 112     -15.575  -9.555  15.877  1.00  9.31     0.159 HD
ATOM     92  H05 ASN A 112     -15.247  -9.111  14.216  1.00  9.31     0.159 HD
ATOM     93  OD1 ASN A 112     -13.437  -8.552  16.740  1.00 21.61    -0.274 OA
ENDBRANCH  88  89
ENDBRANCH  87  88
END_RES ASN A 112
BEGIN_RES PHE A 114
REMARK  2 active torsions:
REMARK  status: ('A' for Active; 'I' for Inactive)
REMARK   30  A    between atoms: CA   and  CB  
REMARK   31  A    between atoms: CB   and  CG  
ROOT
ATOM     94  CA  PHE A 114      -7.754  -3.619  17.012  1.00 26.06     0.180 C 
ENDROOT
BRANCH  94  95
ATOM     95  CB  PHE A 114      -8.890  -3.080  17.867  1.00 19.95     0.073 C 
BRANCH  95  96
ATOM     96  CG  PHE A 114      -8.713  -1.647  18.252  1.00 17.65    -0.056 A 
ATOM     97  CD1 PHE A 114      -8.221  -0.719  17.338  1.00 13.01     0.007 A 
ATOM     98  CE1 PHE A 114      -8.029   0.607  17.704  1.00  6.74     0.001 A 
ATOM     99  CZ  PHE A 114      -8.331   1.024  18.997  1.00  6.27     0.000 A 
ATOM    100  CE2 PHE A 114      -8.822   0.110  19.915  1.00 17.36     0.001 A 
ATOM    101  CD2 PHE A 114      -9.012  -1.224  19.540  1.00 18.39     0.007 A 
ENDBRANCH  95  96
ENDBRANCH  94  95
END_RES PHE A 114
BEGIN_RES VAL A 116
REMARK  1 active torsions:
REMARK  status: ('A' for Active; 'I' for Inactive)
REMARK   32  A    between atoms: CA   and  CB  
ROOT
ATOM    102  CA  VAL A 116      -2.467   0.283  18.565  1.00 13.48     0.180 C 
ENDROOT
BRANCH 102 103
ATOM    103  CB  VAL A 116      -3.101   1.238  19.599  1.00 20.86     0.009 C 
ATOM    104  CG1 VAL A 116      -3.060   2.672  19.064  1.00 25.01     0.012 C 
ATOM    105  CG2 VAL A 116      -4.510   0.810  19.934  1.00 25.34     0.012 C 
ENDBRANCH 102 103
END_RES VAL A 116
BEGIN_RES ILE A 123
REMARK  2 active torsions:
REMARK  status: ('A' for Active; 'I' for Inactive)
REMARK   33  A    between atoms: CA   and  CB  
REMARK   34  A    between atoms: CB   and  CG1 
ROOT
ATOM    106  CA  ILE A 123       1.557  -1.626  23.222  1.00 15.07     0.180 C 
ENDROOT
BRANCH 106 107
ATOM    107  CB  ILE A 123       1.697  -0.112  23.461  1.00 14.41     0.013 C 
ATOM    108  CG2 ILE A 123       3.108   0.211  23.919  1.00 18.35     0.012 C 
BRANCH 107 109
ATOM    109  CG1 ILE A 123       1.367   0.659  22.185  1.00 15.23     0.002 C 
ATOM    110  CD1 ILE A 123       0.254   1.664  22.356  1.00 14.67     0.005 C 
ENDBRANCH 107 109
ENDBRANCH 106 107
END_RES ILE A 123
BEGIN_RES LEU A 124
REMARK  2 active torsions:
REMARK  status: ('A' for Active; 'I' for Inactive)
REMARK   35  A    between atoms: CA   and  CB  
REMARK   36  A    between atoms: CB   and  CG  
ROOT
ATOM    111  CA  LEU A 124      -2.057  -2.686  23.524  1.00 11.86     0.177 C 
ENDROOT
BRANCH 111 112
ATOM    112  CB  LEU A 124      -2.698  -1.652  24.429  1.00 14.60     0.038 C 
BRANCH 112 113
ATOM    113  CG  LEU A 124      -2.615  -0.250  23.844  1.00 16.19    -0.020 C 
ATOM    114  CD1 LEU A 124      -4.030   0.213  23.448  1.00 22.07     0.009 C 
ATOM    115  CD2 LEU A 124      -1.980   0.677  24.849  1.00  9.12     0.009 C 
ENDBRANCH 112 113
ENDBRANCH 111 112
END_RES LEU A 124
BEGIN_RES PHE A 126
REMARK  2 active torsions:
REMARK  status: ('A' for Active; 'I' for Inactive)
REMARK   37  A    between atoms: CA   and  CB  
REMARK   38  A    between atoms: CB   and  CG  
ROOT
ATOM    116  CA  PHE A 126      -8.784  -4.792  22.233  1.00 23.15     0.180 C 
ENDROOT
BRANCH 116 117
ATOM    117  CB  PHE A 126      -9.823  -4.011  21.461  1.00 20.65     0.073 C 
BRANCH 117 118
ATOM    118  CG  PHE A 126     -10.949  -3.542  22.297  1.00 23.65    -0.056 A 
ATOM    119  CD2 PHE A 126     -10.763  -2.541  23.234  1.00 36.63     0.007 A 
ATOM    120  CE2 PHE A 126     -11.832  -2.096  24.025  1.00 36.27     0.001 A 
ATOM    121  CZ  PHE A 126     -13.088  -2.662  23.870  1.00 18.06     0.000 A 
ATOM    122  CE1 PHE A 126     -13.278  -3.660  22.935  1.00  5.50     0.001 A 
ATOM    123  CD1 PHE A 126     -12.210  -4.094  22.150  1.00 15.29     0.007 A 
ENDBRANCH 117 118
ENDBRANCH 116 117
END_RES PHE A 126
BEGIN_RES TRP A 131
REMARK  2 active torsions:
REMARK  status: ('A' for Active; 'I' for Inactive)
REMARK   39  A    between atoms: CA   and  CB  
REMARK   40  A    between atoms: CB   and  CG  
ROOT
ATOM    124  CA  TRP A 131      -8.096  -3.335  26.542  1.00 14.52     0.181 C 
ENDROOT
BRANCH 124 125
ATOM    125  CB  TRP A 131      -7.651  -1.877  26.607  1.00 13.06     0.075 C 
BRANCH 125 126
ATOM    126  CG  TRP A 131      -8.034  -1.056  25.395  1.00 16.97    -0.028 A 
ATOM    127  CD2 TRP A 131      -9.130  -0.144  25.296  1.00 11.34    -0.002 A 
ATOM    128  CE2 TRP A 131      -9.110   0.403  23.998  1.00  5.87     0.042 A 
ATOM    129  CE3 TRP A 131     -10.131   0.263  26.186  1.00  3.80     0.014 A 
ATOM    130  CZ2 TRP A 131     -10.051   1.339  23.567  1.00  1.35     0.030 A 
ATOM    131  NE1 TRP A 131      -8.050  -0.152  23.335  1.00 13.90    -0.365 N 
ATOM    132  CH2 TRP A 131     -11.021   1.721  24.460  1.00  1.00     0.002 A 
ATOM    133  CZ3 TRP A 131     -11.068   1.189  25.763  1.00  1.00     0.001 A 
ATOM    134  CD1 TRP A 131      -7.407  -1.027  24.179  1.00 17.22     0.096 A 
ATOM    135  H07 TRP A 131      -7.783   0.048  22.382  1.00 13.90     0.165 HD
ENDBRANCH 125 126
ENDBRANCH 124 125
END_RES TRP A 131
BEGIN_RES LEU A 148
REMARK  2 active torsions:
REMARK  status: ('A' for Active; 'I' for Inactive)
REMARK   41  A    between atoms: CA   and  CB  
REMARK   42  A    between atoms: CB   and  CG  
ROOT
ATOM    136  CA  LEU A 148      -9.018   3.259  29.295  1.00 16.99     0.177 C 
ENDROOT
BRANCH 136 137
ATOM    137  CB  LEU A 148      -8.166   2.574  28.236  1.00  6.39     0.038 C 
BRANCH 137 138
ATOM    138  CG  LEU A 148      -8.020   3.163  26.848  1.00  1.00    -0.020 C 
ATOM    139  CD2 LEU A 148      -6.839   2.558  26.147  1.00  1.00     0.009 C 
ATOM    140  CD1 LEU A 148      -7.848   4.665  26.985  1.00  2.71     0.009 C 
ENDBRANCH 137 138
ENDBRANCH 136 137
END_RES LEU A 148
BEGIN_RES THR A 154
REMARK  2 active torsions:
REMARK  status: ('A' for Active; 'I' for Inactive)
REMARK   43  A    between atoms: CA   and  CB  
REMARK   44  A    between atoms: CB   and  OG1 
ROOT
ATOM    141  CA  THR A 154     -15.990   3.959  24.426  1.00 20.45     0.205 C 
ENDROOT
BRANCH 141 142
ATOM    142  CB  THR A 154     -14.777   4.829  24.694  1.00 16.79     0.146 C 
ATOM    143  CG2 THR A 154     -13.624   4.408  23.803  1.00 20.24     0.042 C 
BRANCH 142 144
ATOM    144  OG1 THR A 154     -15.111   6.193  24.406  1.00 18.84    -0.393 OA
ATOM    145  H06 THR A 154     -15.055   6.343  23.459  1.00 18.84     0.210 HD
ENDBRANCH 142 144
ENDBRANCH 141 142
END_RES THR A 154
BEGIN_RES VAL A 158
REMARK  1 active torsions:
REMARK  status: ('A' for Active; 'I' for Inactive)
REMARK   45  A    between atoms: CA   and  CB  
ROOT
ATOM    146  CA  VAL A 158     -15.487  -0.189  19.892  1.00 15.49     0.180 C 
ENDROOT
BRANCH 146 147
ATOM    147  CB  VAL A 158     -14.291  -0.273  20.822  1.00  6.52     0.009 C 
ATOM    148  CG1 VAL A 158     -13.249  -1.222  20.276  1.00  1.00     0.012 C 
ATOM    149  CG2 VAL A 158     -13.719   1.100  20.993  1.00  5.99     0.012 C 
ENDBRANCH 146 147
END_RES VAL A 158
BEGIN_RES LEU A 161
REMARK  2 active torsions:
REMARK  status: ('A' for Active; 'I' for Inactive)
REMARK   46  A    between atoms: CA   and  CB  
REMARK   47  A    between atoms: CB   and  CG  
ROOT
ATOM    150  CA  LEU A 161     -18.031  -1.858  15.935  1.00 13.31     0.177 C 
ENDROOT
BRANCH 150 151
ATOM    151  CB  LEU A 161     -17.046  -0.706  16.001  1.00 14.13     0.038 C 
BRANCH 151 152
ATOM    152  CG  LEU A 161     -17.348   0.492  15.109  1.00 19.39    -0.020 C 
ATOM    153  CD2 LEU A 161     -16.509   1.676  15.524  1.00 27.75     0.009 C 
ATOM    154  CD1 LEU A 161     -18.810   0.830  15.227  1.00 18.59     0.009 C 
ENDBRANCH 151 152
ENDBRANCH 150 151
END_RES LEU A 161
BEGIN_RES GLN A 168
REMARK  3 active torsions:
REMARK  status: ('A' for Active; 'I' for Inactive)
REMARK   48  A    between atoms: CA   and  CB  
REMARK   49  A    between atoms: CB   and  CG  
REMARK   50  A    between atoms: CG   and  CD  
REMARK       I    between atoms: CD   and  NE2 
ROOT
ATOM    155  CA  GLN A 168     -22.035  -6.020   8.155  1.00 30.94     0.177 C 
ENDROOT
BRANCH 155 156
ATOM    156  CB  GLN A 168     -23.054  -5.218   8.946  1.00 41.76     0.044 C 
BRANCH 156 157
ATOM    157  CG  GLN A 168     -24.425  -5.835   9.003  1.00 61.20     0.105 C 
BRANCH 157 158
ATOM    158  CD  GLN A 168     -24.808  -6.232  10.415  1.00 75.49     0.215 C 
ATOM    159  NE2 GLN A 168     -23.995  -5.814  11.387  1.00 85.00    -0.370 N 
ATOM    160  H06 GLN A 168     -24.195  -6.049  12.349  1.00 85.00     0.159 HD
ATOM    161  H07 GLN A 168     -23.179  -5.263  11.160  1.00 85.00     0.159 HD
ATOM    162  OE1 GLN A 168     -25.820  -6.913  10.636  1.00 73.64    -0.274 OA
ENDBRANCH 157 158
ENDBRANCH 156 157
ENDBRANCH 155 156
END_RES GLN A 168
ENDMDL
MODEL 4
REMARK VINA RESULT:     -12.5      1.810      2.863
REMARK  Name = human_CD1d_CHAPS_pred.rank_0
REMARK  12 active torsions:
REMARK  status: ('A' for Active; 'I' for Inactive)
REMARK    1  A    between atoms: N_2  and  C_14
REMARK    2  A    between atoms: S_4  and  C_23
REMARK    3  A    between atoms: C_5  and  C_8
REMARK    4  A    between atoms: C_5  and  C_24
REMARK    5  A    between atoms: N_6  and  C_18
REMARK    6  A    between atoms: N_6  and  C_21
REMARK    7  A    between atoms: C_8  and  C_10
REMARK    8  A    between atoms: C_10  and  C_12
REMARK    9  A    between atoms: C_14  and  C_16
REMARK   10  A    between atoms: C_16  and  C_18
REMARK   11  A    between atoms: C_21  and  C_22
REMARK   12  A    between atoms: C_22  and  C_23
REMARK                            x       y       z     vdW  Elec       q    Type
REMARK                         _______ _______ _______ _____ _____    ______ ____
ROOT
ATOM      1  O   UNL     1     -11.080   7.982  21.390  0.00  0.00    +0.000 OA
ATOM      2  O   UNL     1     -12.896   3.310  19.279  0.00  0.00    +0.000 OA
ATOM      3  O   UNL     1     -13.239   4.021  15.144  0.00  0.00    +0.000 OA
ATOM      4  C   UNL     1     -12.587   1.184  14.653  0.00  0.00    +0.000 C 
ATOM      5  C   UNL     1     -12.492   0.000  15.651  0.00  0.00    +0.000 C 
ATOM      6  C   UNL     1     -11.948   0.564  16.951  0.00  0.00    +0.000 C 
ATOM      7  C   UNL     1     -11.974   2.070  16.757  0.00  0.00    +0.000 C 
ATOM      8  C   UNL     1     -11.612   2.227  15.280  0.00  0.00    +0.000 C 
ATOM      9  C   UNL     1     -11.847   3.700  14.946  0.00  0.00    +0.000 C 
ATOM     10  C   UNL     1     -10.945   4.634  15.838  0.00  0.00    +0.000 C 
ATOM     11  C   UNL     1     -11.093   4.390  17.346  0.00  0.00    +0.000 C 
ATOM     12  C   UNL     1     -11.086   2.904  17.702  0.00  0.00    +0.000 C 
ATOM     13  C   UNL     1     -11.617   2.735  19.162  0.00  0.00    +0.000 C 
ATOM     14  C   UNL     1     -10.563   3.442  20.091  0.00  0.00    +0.000 C 
ATOM     15  C   UNL     1     -10.119   4.808  19.711  0.00  0.00    +0.000 C 
ATOM     16  C   UNL     1     -10.046   5.191  18.207  0.00  0.00    +0.000 C 
ATOM     17  C   UNL     1     -10.234   6.712  17.934  0.00  0.00    +0.000 C 
ATOM     18  C   UNL     1     -10.913   7.525  19.034  0.00  0.00    +0.000 C 
ATOM     19  C   UNL     1     -10.479   7.105  20.407  0.00  0.00    +0.000 C 
ATOM     20  C   UNL     1     -10.967   5.717  20.590  0.00  0.00    +0.000 C 
ATOM     21  C   UNL     1      -8.665   4.901  17.829  0.00  0.00    +0.000 C 
ATOM     22  C   UNL     1     -10.183   1.840  14.922  0.00  0.00    +0.000 C 
ENDROOT
BRANCH   4  24
ATOM     23  C   UNL     1     -12.467   1.866  12.220  0.00  0.00    +0.000 C 
ATOM     24  C   UNL     1     -12.320   0.739  13.207  0.00  0.00    +0.000 C 
BRANCH  24  25
ATOM     25  C   UNL     1     -13.337  -0.404  12.855  0.00  0.00    +0.000 C 
BRANCH  25  26
ATOM     26  C   UNL     1     -14.734   0.178  12.759  0.00  0.00    +0.000 C 
BRANCH  26  29
ATOM     27  N   UNL     1     -16.439   0.480  11.010  0.00  0.00    +0.000 NA
ATOM     28  O   UNL     1     -14.586  -0.712  10.533  0.00  0.00    +0.000 OA
ATOM     29  C   UNL     1     -15.256  -0.087  11.338  0.00  0.00    +0.000 C 
BRANCH  27  30
ATOM     30  C   UNL     1     -16.928   0.410   9.588  0.00  0.00    +0.000 C 
BRANCH  30  31
ATOM     31  C   UNL     1     -17.117   1.808   8.973  0.00  0.00    +0.000 C 
BRANCH  31  32
ATOM     32  C   UNL     1     -16.227   2.020   7.806  0.00  0.00    +0.000 C 
BRANCH  32  33
ATOM     33  N   UNL     1     -15.282   3.126   8.055  0.00  0.00    +0.000 N 
ATOM     34  C   UNL     1     -16.061   4.290   8.421  0.00  0.00    +0.000 C 
ATOM     35  C   UNL     1     -14.330   2.828   9.114  0.00  0.00    +0.000 C 
BRANCH  33  36
ATOM     36  C   UNL     1     -14.531   3.414   6.776  0.00  0.00    +0.000 C 
BRANCH  36  37
ATOM     37  C   UNL     1     -12.979   3.547   6.963  0.00  0.00    +0.000 C 
BRANCH  37  38
ATOM     38  C   UNL     1     -12.547   4.934   6.588  0.00  0.00    +0.000 C 
BRANCH  38  39
ATOM     39  S   UNL     1     -10.854   5.051   6.776  0.00  0.00    +0.000 S 
ATOM     40  O   UNL     1     -10.265   5.359   5.486  0.00  0.00    +0.000 OA
ATOM     41  O   UNL     1     -10.289   3.806   7.322  0.00  0.00    +0.000 OA
ATOM     42  O   UNL     1     -10.582   6.130   7.742  0.00  0.00    +0.000 OA
ENDBRANCH  38  39
ENDBRANCH  37  38
ENDBRANCH  36  37
ENDBRANCH  33  36
ENDBRANCH  32  33
ENDBRANCH  31  32
ENDBRANCH  30  31
ENDBRANCH  27  30
ENDBRANCH  26  29
ENDBRANCH  25  26
ENDBRANCH  24  25
ENDBRANCH   4  24
TORSDOF 12
BEGIN_RES LEU A  10
REMARK  2 active torsions:
REMARK  status: ('A' for Active; 'I' for Inactive)
REMARK    1  A    between atoms: CA   and  CB  
REMARK    2  A    between atoms: CB   and  CG  
ROOT
ATOM      1  CA  LEU A  10     -10.775  -4.871   5.898  1.00 25.14     0.177 C 
ENDROOT
BRANCH   1   2
ATOM      2  CB  LEU A  10     -12.191  -4.387   6.226  1.00 17.87     0.038 C 
BRANCH   2   3
ATOM      3  CG  LEU A  10     -12.415  -2.890   6.005  1.00 24.95    -0.020 C 
ATOM      4  CD2 LEU A  10     -13.596  -2.451   6.802  1.00 26.38     0.009 C 
ATOM      5  CD1 LEU A  10     -12.621  -2.583   4.531  1.00 28.12     0.009 C 
ENDBRANCH   2   3
ENDBRANCH   1   2
END_RES LEU A  10
BEGIN_RES CYS A  12
REMARK  2 active torsions:
REMARK  status: ('A' for Active; 'I' for Inactive)
REMARK    3  A    between atoms: CA   and  CB  
REMARK    4  A    between atoms: CB   and  SG  
ROOT
ATOM      6  CA  CYS A  12      -8.555   0.470   8.750  1.00 23.16     0.185 C 
ENDROOT
BRANCH   6   7
ATOM      7  CB  CYS A  12      -9.828   0.763   9.555  1.00 20.43     0.105 C 
BRANCH   7   8
ATOM      8  SG  CYS A  12     -11.404   0.465   8.696  1.00 24.64    -0.180 SA
ATOM      9  H04 CYS A  12     -12.419   0.633   9.554  1.00 24.64     0.101 HD
ENDBRANCH   7   8
ENDBRANCH   6   7
END_RES CYS A  12
BEGIN_RES GLN A  14
REMARK  3 active torsions:
REMARK  status: ('A' for Active; 'I' for Inactive)
REMARK    5  A    between atoms: CA   and  CB  
REMARK    6  A    between atoms: CB   and  CG  
REMARK    7  A    between atoms: CG   and  CD  
REMARK       I    between atoms: CD   and  NE2 
ROOT
ATOM     10  CA  GLN A  14      -4.645   5.402  11.377  1.00 10.43     0.177 C 
ENDROOT
BRANCH  10  11
ATOM     11  CB  GLN A  14      -5.541   5.549  12.608  1.00 14.45     0.044 C 
BRANCH  11  12
ATOM     12  CG  GLN A  14      -6.558   6.661  12.501  1.00 13.74     0.105 C 
BRANCH  12  13
ATOM     13  CD  GLN A  14      -6.610   7.517  13.744  1.00 16.29     0.215 C 
ATOM     14  NE2 GLN A  14      -6.150   8.745  13.630  1.00  8.57    -0.370 N 
ATOM     15  H06 GLN A  14      -6.161   9.364  14.428  1.00  8.57     0.159 HD
ATOM     16  H07 GLN A  14      -5.787   9.068  12.745  1.00  8.57     0.159 HD
ATOM     17  OE1 GLN A  14      -7.061   7.081  14.792  1.00 23.55    -0.274 OA
ENDBRANCH  12  13
ENDBRANCH  11  12
ENDBRANCH  10  11
END_RES GLN A  14
BEGIN_RES SER A  16
REMARK  2 active torsions:
REMARK  status: ('A' for Active; 'I' for Inactive)
REMARK    8  A    between atoms: CA   and  CB  
REMARK    9  A    between atoms: CB   and  OG  
ROOT
ATOM     18  CA  SER A  16      -1.305  10.019  14.282  1.00  2.34     0.200 C 
ENDROOT
BRANCH  18  19
ATOM     19  CB  SER A  16      -2.242   9.935  15.479  1.00  3.12     0.199 C 
BRANCH  19  20
ATOM     20  OG  SER A  16      -3.452   9.295  15.113  1.00  1.00    -0.398 OA
ATOM     21  H04 SER A  16      -3.276   8.643  14.432  1.00  1.00     0.209 HD
ENDBRANCH  19  20
ENDBRANCH  18  19
END_RES SER A  16
BEGIN_RES LEU A  32
REMARK  2 active torsions:
REMARK  status: ('A' for Active; 'I' for Inactive)
REMARK   10  A    between atoms: CA   and  CB  
REMARK   11  A    between atoms: CB   and  CG  
ROOT
ATOM     22  CA  LEU A  32     -10.272  -4.106   1.587  1.00 16.16     0.177 C 
ENDROOT
BRANCH  22  23
ATOM     23  CB  LEU A  32     -11.613  -3.858   0.880  1.00 12.35     0.038 C 
BRANCH  23  24
ATOM     24  CG  LEU A  32     -12.519  -5.106   0.913  1.00  9.77    -0.020 C 
ATOM     25  CD1 LEU A  32     -12.996  -5.372   2.321  1.00  4.35     0.009 C 
ATOM     26  CD2 LEU A  32     -13.703  -4.934  -0.002  1.00 10.60     0.009 C 
ENDBRANCH  23  24
ENDBRANCH  22  23
END_RES LEU A  32
BEGIN_RES HIS A  38
REMARK  2 active torsions:
REMARK  status: ('A' for Active; 'I' for Inactive)
REMARK   12  A    between atoms: CA   and  CB  
REMARK   13  A    between atoms: CB   and  CG  
ROOT
ATOM     27  CA  HIS A  38     -10.959   4.941   1.621  1.00 16.94     0.182 C 
ENDROOT
BRANCH  27  28
ATOM     28  CB  HIS A  38     -11.810   4.840   2.881  1.00 15.47     0.095 C 
BRANCH  28  29
ATOM     29  CG  HIS A  38     -12.966   3.901   2.755  1.00 18.62     0.053 A 
ATOM     30  CD2 HIS A  38     -14.128   4.009   2.069  1.00 15.06     0.116 A 
ATOM     31  NE2 HIS A  38     -14.825   2.845   2.272  1.00 18.12    -0.359 N 
ATOM     32  CE1 HIS A  38     -14.119   2.051   3.053  1.00 14.78     0.207 A 
ATOM     33  H06 HIS A  38     -15.733   2.631   1.885  1.00 18.12     0.166 HD
ATOM     34  ND1 HIS A  38     -12.993   2.664   3.361  1.00 16.58    -0.247 NA
ENDBRANCH  28  29
ENDBRANCH  27  28
END_RES HIS A  38
BEGIN_RES TRP A  63
REMARK  2 active torsions:
REMARK  status: ('A' for Active; 'I' for Inactive)
REMARK   14  A    between atoms: CA   and  CB  
REMARK   15  A    between atoms: CB   and  CG  
ROOT
ATOM     35  CA  TRP A  63     -22.437   6.257   6.543  1.00 27.04     0.181 C 
ENDROOT
BRANCH  35  36
ATOM     36  CB  TRP A  63     -22.360   6.642   5.068  1.00 31.37     0.075 C 
BRANCH  36  37
ATOM     37  CG  TRP A  63     -20.955   6.701   4.506  1.00 34.37    -0.028 A 
ATOM     38  CD2 TRP A  63     -19.904   5.744   4.696  1.00 33.79    -0.002 A 
ATOM     39  CE3 TRP A  63     -19.783   4.566   5.437  1.00 32.99     0.014 A 
ATOM     40  CE2 TRP A  63     -18.801   6.178   3.928  1.00 35.84     0.042 A 
ATOM     41  CZ3 TRP A  63     -18.585   3.868   5.390  1.00 32.93     0.001 A 
ATOM     42  CH2 TRP A  63     -17.506   4.326   4.617  1.00 39.24     0.002 A 
ATOM     43  CZ2 TRP A  63     -17.596   5.476   3.879  1.00 37.99     0.030 A 
ATOM     44  NE1 TRP A  63     -19.169   7.339   3.306  1.00 37.98    -0.365 N 
ATOM     45  H06 TRP A  63     -18.586   7.884   2.686  1.00 37.98     0.165 HD
ATOM     46  CD1 TRP A  63     -20.461   7.644   3.660  1.00 38.16     0.096 A 
ENDBRANCH  36  37
ENDBRANCH  35  36
END_RES TRP A  63
BEGIN_RES LEU A  66
REMARK  2 active torsions:
REMARK  status: ('A' for Active; 'I' for Inactive)
REMARK   16  A    between atoms: CA   and  CB  
REMARK   17  A    between atoms: CB   and  CG  
ROOT
ATOM     47  CA  LEU A  66     -20.004   6.489  11.120  1.00 10.90     0.177 C 
ENDROOT
BRANCH  47  48
ATOM     48  CB  LEU A  66     -19.626   5.453  10.069  1.00 13.57     0.038 C 
BRANCH  48  49
ATOM     49  CG  LEU A  66     -19.428   4.014  10.544  1.00  8.73    -0.020 C 
ATOM     50  CD1 LEU A  66     -19.324   3.961  12.046  1.00 14.23     0.009 C 
ATOM     51  CD2 LEU A  66     -20.602   3.192  10.078  1.00  1.92     0.009 C 
ENDBRANCH  48  49
ENDBRANCH  47  48
END_RES LEU A  66
BEGIN_RES PHE A  70
REMARK  2 active torsions:
REMARK  status: ('A' for Active; 'I' for Inactive)
REMARK   18  A    between atoms: CA   and  CB  
REMARK   19  A    between atoms: CB   and  CG  
ROOT
ATOM     52  CA  PHE A  70     -14.974   9.434  13.165  1.00  8.78     0.180 C 
ENDROOT
BRANCH  52  53
ATOM     53  CB  PHE A  70     -14.707   9.132  11.681  1.00  6.33     0.073 C 
BRANCH  53  54
ATOM     54  CG  PHE A  70     -13.929   7.863  11.459  1.00  3.42    -0.056 A 
ATOM     55  CD1 PHE A  70     -13.741   7.353  10.184  1.00 13.88     0.007 A 
ATOM     56  CE1 PHE A  70     -13.054   6.142   9.987  1.00 12.71     0.001 A 
ATOM     57  CZ  PHE A  70     -12.549   5.437  11.080  1.00  4.21     0.000 A 
ATOM     58  CE2 PHE A  70     -12.728   5.937  12.357  1.00  2.83     0.001 A 
ATOM     59  CD2 PHE A  70     -13.416   7.148  12.542  1.00  1.00     0.007 A 
ENDBRANCH  53  54
ENDBRANCH  52  53
END_RES PHE A  70
BEGIN_RES TYR A  73
REMARK  3 active torsions:
REMARK  status: ('A' for Active; 'I' for Inactive)
REMARK   20  A    between atoms: CA   and  CB  
REMARK   21  A    between atoms: CB   and  CG  
REMARK   22  A    between atoms: CZ   and  OH  
ROOT
ATOM     60  CA  TYR A  73     -13.212  10.166  17.260  1.00 12.17     0.180 C 
ENDROOT
BRANCH  60  61
ATOM     61  CB  TYR A  73     -13.301   8.846  16.517  1.00 12.84     0.073 C 
BRANCH  61  62
ATOM     62  CG  TYR A  73     -13.904   7.757  17.333  1.00 15.89    -0.056 A 
ATOM     63  CD1 TYR A  73     -14.288   7.975  18.638  1.00 16.00     0.010 A 
ATOM     64  CE1 TYR A  73     -14.825   6.948  19.414  1.00 13.55     0.037 A 
ATOM     65  CZ  TYR A  73     -14.973   5.690  18.863  1.00 18.13     0.065 A 
ATOM     66  CE2 TYR A  73     -14.599   5.447  17.562  1.00 15.89     0.037 A 
ATOM     67  CD2 TYR A  73     -14.067   6.482  16.803  1.00 21.86     0.010 A 
BRANCH  65  68
ATOM     68  OH  TYR A  73     -15.505   4.666  19.607  1.00 12.12    -0.361 OA
ATOM     69  H08 TYR A  73     -15.239   3.824  19.229  1.00 12.12     0.217 HD
ENDBRANCH  65  68
ENDBRANCH  61  62
ENDBRANCH  60  61
END_RES TYR A  73
BEGIN_RES PHE A  77
REMARK  2 active torsions:
REMARK  status: ('A' for Active; 'I' for Inactive)
REMARK   23  A    between atoms: CA   and  CB  
REMARK   24  A    between atoms: CB   and  CG  
ROOT
ATOM     70  CA  PHE A  77      -8.400  10.581  20.110  1.00 17.17     0.180 C 
ENDROOT
BRANCH  70  71
ATOM     71  CB  PHE A  77      -8.228   9.750  18.851  1.00 10.44     0.073 C 
BRANCH  71  72
ATOM     72  CG  PHE A  77      -7.264   8.616  19.004  1.00  6.07    -0.056 A 
ATOM     73  CD2 PHE A  77      -7.276   7.836  20.139  1.00  9.61     0.007 A 
ATOM     74  CE2 PHE A  77      -6.385   6.780  20.289  1.00  1.00     0.001 A 
ATOM     75  CZ  PHE A  77      -5.472   6.498  19.287  1.00  1.92     0.000 A 
ATOM     76  CE1 PHE A  77      -5.448   7.267  18.146  1.00  9.25     0.001 A 
ATOM     77  CD1 PHE A  77      -6.346   8.325  18.009  1.00  9.63     0.007 A 
ENDBRANCH  71  72
ENDBRANCH  70  71
END_RES PHE A  77
BEGIN_RES LEU A  96
REMARK  2 active torsions:
REMARK  status: ('A' for Active; 'I' for Inactive)
REMARK   25  A    between atoms: CA   and  CB  
REMARK   26  A    between atoms: CB   and  CG  
ROOT
ATOM     78  CA  LEU A  96       0.717   6.481  17.359  1.00 16.08     0.177 C 
ENDROOT
BRANCH  78  79
ATOM     79  CB  LEU A  96      -0.370   7.101  18.230  1.00 18.83     0.038 C 
BRANCH  79  80
ATOM     80  CG  LEU A  96      -0.205   6.847  19.728  1.00 19.03    -0.020 C 
ATOM     81  CD1 LEU A  96       0.485   8.037  20.352  1.00 28.17     0.009 C 
ATOM     82  CD2 LEU A  96      -1.555   6.677  20.386  1.00 22.01     0.009 C 
ENDBRANCH  79  80
ENDBRANCH  78  79
END_RES LEU A  96
BEGIN_RES VAL A  98
REMARK  1 active torsions:
REMARK  status: ('A' for Active; 'I' for Inactive)
REMARK   27  A    between atoms: CA   and  CB  
ROOT
ATOM     83  CA  VAL A  98      -3.928   2.082  14.897  1.00 19.83     0.180 C 
ENDROOT
BRANCH  83  84
ATOM     84  CB  VAL A  98      -5.203   2.807  15.281  1.00 17.87     0.009 C 
ATOM     85  CG2 VAL A  98      -4.897   4.241  15.630  1.00 29.90     0.012 C 
ATOM     86  CG1 VAL A  98      -5.857   2.098  16.448  1.00 14.79     0.012 C 
ENDBRANCH  83  84
END_RES VAL A  98
BEGIN_RES ASN A 112
REMARK  2 active torsions:
REMARK  status: ('A' for Active; 'I' for Inactive)
REMARK   28  A    between atoms: CA   and  CB  
REMARK   29  A    between atoms: CB   and  CG  
REMARK       I    between atoms: CG   and  ND2 
ROOT
ATOM     87  CA  ASN A 112     -11.790  -8.793  14.069  1.00 37.70     0.185 C 
ENDROOT
BRANCH  87  88
ATOM     88  CB  ASN A 112     -12.992  -7.945  14.465  1.00 26.24     0.137 C 
BRANCH  88  89
ATOM     89  CG  ASN A 112     -13.823  -8.571  15.562  1.00 21.77     0.217 C 
ATOM     90  ND2 ASN A 112     -14.978  -9.120  15.185  1.00  9.31    -0.370 N 
ATOM     91  H04 ASN A 112     -15.580  -9.552  15.871  1.00  9.31     0.159 HD
ATOM     92  H05 ASN A 112     -15.251  -9.103  14.212  1.00  9.31     0.159 HD
ATOM     93  OD1 ASN A 112     -13.439  -8.560  16.737  1.00 21.61    -0.274 OA
ENDBRANCH  88  89
ENDBRANCH  87  88
END_RES ASN A 112
BEGIN_RES PHE A 114
REMARK  2 active torsions:
REMARK  status: ('A' for Active; 'I' for Inactive)
REMARK   30  A    between atoms: CA   and  CB  
REMARK   31  A    between atoms: CB   and  CG  
ROOT
ATOM     94  CA  PHE A 114      -7.754  -3.619  17.012  1.00 26.06     0.180 C 
ENDROOT
BRANCH  94  95
ATOM     95  CB  PHE A 114      -8.890  -3.080  17.867  1.00 19.95     0.073 C 
BRANCH  95  96
ATOM     96  CG  PHE A 114      -8.707  -1.650  18.262  1.00 17.65    -0.056 A 
ATOM     97  CD1 PHE A 114      -8.863  -1.251  19.586  1.00 13.01     0.007 A 
ATOM     98  CE1 PHE A 114      -8.722   0.082  19.950  1.00  6.74     0.001 A 
ATOM     99  CZ  PHE A 114      -8.418   1.039  18.986  1.00  6.27     0.000 A 
ATOM    100  CE2 PHE A 114      -8.259   0.653  17.664  1.00 17.36     0.001 A 
ATOM    101  CD2 PHE A 114      -8.404  -0.691  17.305  1.00 18.39     0.007 A 
ENDBRANCH  95  96
ENDBRANCH  94  95
END_RES PHE A 114
BEGIN_RES VAL A 116
REMARK  1 active torsions:
REMARK  status: ('A' for Active; 'I' for Inactive)
REMARK   32  A    between atoms: CA   and  CB  
ROOT
ATOM    102  CA  VAL A 116      -2.467   0.283  18.565  1.00 13.48     0.180 C 
ENDROOT
BRANCH 102 103
ATOM    103  CB  VAL A 116      -3.101   1.238  19.599  1.00 20.86     0.009 C 
ATOM    104  CG1 VAL A 116      -3.050   2.673  19.068  1.00 25.01     0.012 C 
ATOM    105  CG2 VAL A 116      -4.514   0.815  19.927  1.00 25.34     0.012 C 
ENDBRANCH 102 103
END_RES VAL A 116
BEGIN_RES ILE A 123
REMARK  2 active torsions:
REMARK  status: ('A' for Active; 'I' for Inactive)
REMARK   33  A    between atoms: CA   and  CB  
REMARK   34  A    between atoms: CB   and  CG1 
ROOT
ATOM    106  CA  ILE A 123       1.557  -1.626  23.222  1.00 15.07     0.180 C 
ENDROOT
BRANCH 106 107
ATOM    107  CB  ILE A 123       1.697  -0.112  23.461  1.00 14.41     0.013 C 
ATOM    108  CG2 ILE A 123       3.105   0.210  23.929  1.00 18.35     0.012 C 
BRANCH 107 109
ATOM    109  CG1 ILE A 123       1.377   0.658  22.182  1.00 15.23     0.002 C 
ATOM    110  CD1 ILE A 123       0.257   1.657  22.341  1.00 14.67     0.005 C 
ENDBRANCH 107 109
ENDBRANCH 106 107
END_RES ILE A 123
BEGIN_RES LEU A 124
REMARK  2 active torsions:
REMARK  status: ('A' for Active; 'I' for Inactive)
REMARK   35  A    between atoms: CA   and  CB  
REMARK   36  A    between atoms: CB   and  CG  
ROOT
ATOM    111  CA  LEU A 124      -2.057  -2.686  23.524  1.00 11.86     0.177 C 
ENDROOT
BRANCH 111 112
ATOM    112  CB  LEU A 124      -2.698  -1.652  24.429  1.00 14.60     0.038 C 
BRANCH 112 113
ATOM    113  CG  LEU A 124      -2.612  -0.250  23.845  1.00 16.19    -0.020 C 
ATOM    114  CD1 LEU A 124      -4.026   0.215  23.446  1.00 22.07     0.009 C 
ATOM    115  CD2 LEU A 124      -1.980   0.677  24.853  1.00  9.12     0.009 C 
ENDBRANCH 112 113
ENDBRANCH 111 112
END_RES LEU A 124
BEGIN_RES PHE A 126
REMARK  2 active torsions:
REMARK  status: ('A' for Active; 'I' for Inactive)
REMARK   37  A    between atoms: CA   and  CB  
REMARK   38  A    between atoms: CB   and  CG  
ROOT
ATOM    116  CA  PHE A 126      -8.784  -4.792  22.233  1.00 23.15     0.180 C 
ENDROOT
BRANCH 116 117
ATOM    117  CB  PHE A 126      -9.823  -4.011  21.461  1.00 20.65     0.073 C 
BRANCH 117 118
ATOM    118  CG  PHE A 126     -10.929  -3.508  22.304  1.00 23.65    -0.056 A 
ATOM    119  CD2 PHE A 126     -10.694  -2.559  23.283  1.00 36.63     0.007 A 
ATOM    120  CE2 PHE A 126     -11.744  -2.082  24.081  1.00 36.27     0.001 A 
ATOM    121  CZ  PHE A 126     -13.030  -2.563  23.891  1.00 18.06     0.000 A 
ATOM    122  CE1 PHE A 126     -13.268  -3.508  22.913  1.00  5.50     0.001 A 
ATOM    123  CD1 PHE A 126     -12.219  -3.975  22.122  1.00 15.29     0.007 A 
ENDBRANCH 117 118
ENDBRANCH 116 117
END_RES PHE A 126
BEGIN_RES TRP A 131
REMARK  2 active torsions:
REMARK  status: ('A' for Active; 'I' for Inactive)
REMARK   39  A    between atoms: CA   and  CB  
REMARK   40  A    between atoms: CB   and  CG  
ROOT
ATOM    124  CA  TRP A 131      -8.096  -3.335  26.542  1.00 14.52     0.181 C 
ENDROOT
BRANCH 124 125
ATOM    125  CB  TRP A 131      -7.651  -1.877  26.607  1.00 13.06     0.075 C 
BRANCH 125 126
ATOM    126  CG  TRP A 131      -7.991  -1.068  25.375  1.00 16.97    -0.028 A 
ATOM    127  CD2 TRP A 131      -9.044  -0.108  25.250  1.00 11.34    -0.002 A 
ATOM    128  CE2 TRP A 131      -8.994   0.406  23.939  1.00  5.87     0.042 A 
ATOM    129  CE3 TRP A 131     -10.027   0.366  26.125  1.00  3.80     0.014 A 
ATOM    130  CZ2 TRP A 131      -9.889   1.375  23.482  1.00  1.35     0.030 A 
ATOM    131  NE1 TRP A 131      -7.959  -0.214  23.293  1.00 13.90    -0.365 N 
ATOM    132  CH2 TRP A 131     -10.842   1.823  24.362  1.00  1.00     0.002 A 
ATOM    133  CZ3 TRP A 131     -10.918   1.325  25.676  1.00  1.00     0.001 A 
ATOM    134  CD1 TRP A 131      -7.360  -1.097  24.161  1.00 17.22     0.096 A 
ATOM    135  H07 TRP A 131      -7.680  -0.049  22.337  1.00 13.90     0.165 HD
ENDBRANCH 125 126
ENDBRANCH 124 125
END_RES TRP A 131
BEGIN_RES LEU A 148
REMARK  2 active torsions:
REMARK  status: ('A' for Active; 'I' for Inactive)
REMARK   41  A    between atoms: CA   and  CB  
REMARK   42  A    between atoms: CB   and  CG  
ROOT
ATOM    136  CA  LEU A 148      -9.018   3.259  29.295  1.00 16.99     0.177 C 
ENDROOT
BRANCH 136 137
ATOM    137  CB  LEU A 148      -8.166   2.574  28.236  1.00  6.39     0.038 C 
BRANCH 137 138
ATOM    138  CG  LEU A 148      -7.932   3.217  26.884  1.00  1.00    -0.020 C 
ATOM    139  CD2 LEU A 148      -6.485   3.581  26.723  1.00  1.00     0.009 C 
ATOM    140  CD1 LEU A 148      -8.808   4.453  26.787  1.00  2.71     0.009 C 
ENDBRANCH 137 138
ENDBRANCH 136 137
END_RES LEU A 148
BEGIN_RES THR A 154
REMARK  2 active torsions:
REMARK  status: ('A' for Active; 'I' for Inactive)
REMARK   43  A    between atoms: CA   and  CB  
REMARK   44  A    between atoms: CB   and  OG1 
ROOT
ATOM    141  CA  THR A 154     -15.990   3.959  24.426  1.00 20.45     0.205 C 
ENDROOT
BRANCH 141 142
ATOM    142  CB  THR A 154     -14.777   4.829  24.694  1.00 16.79     0.146 C 
ATOM    143  CG2 THR A 154     -13.622   4.404  23.808  1.00 20.24     0.042 C 
BRANCH 142 144
ATOM    144  OG1 THR A 154     -15.109   6.192  24.400  1.00 18.84    -0.393 OA
ATOM    145  H06 THR A 154     -15.409   6.629  25.200  1.00 18.84     0.210 HD
ENDBRANCH 142 144
ENDBRANCH 141 142
END_RES THR A 154
BEGIN_RES VAL A 158
REMARK  1 active torsions:
REMARK  status: ('A' for Active; 'I' for Inactive)
REMARK   45  A    between atoms: CA   and  CB  
ROOT
ATOM    146  CA  VAL A 158     -15.487  -0.189  19.892  1.00 15.49     0.180 C 
ENDROOT
BRANCH 146 147
ATOM    147  CB  VAL A 158     -14.291  -0.273  20.822  1.00  6.52     0.009 C 
ATOM    148  CG1 VAL A 158     -13.134  -0.976  20.150  1.00  1.00     0.012 C 
ATOM    149  CG2 VAL A 158     -13.902   1.114  21.231  1.00  5.99     0.012 C 
ENDBRANCH 146 147
END_RES VAL A 158
BEGIN_RES LEU A 161
REMARK  2 active torsions:
REMARK  status: ('A' for Active; 'I' for Inactive)
REMARK   46  A    between atoms: CA   and  CB  
REMARK   47  A    between atoms: CB   and  CG  
ROOT
ATOM    150  CA  LEU A 161     -18.031  -1.858  15.935  1.00 13.31     0.177 C 
ENDROOT
BRANCH 150 151
ATOM    151  CB  LEU A 161     -17.046  -0.706  16.001  1.00 14.13     0.038 C 
BRANCH 151 152
ATOM    152  CG  LEU A 161     -17.588   0.668  15.626  1.00 19.39    -0.020 C 
ATOM    153  CD2 LEU A 161     -18.101   0.657  14.206  1.00 27.75     0.009 C 
ATOM    154  CD1 LEU A 161     -16.485   1.681  15.767  1.00 18.59     0.009 C 
ENDBRANCH 151 152
ENDBRANCH 150 151
END_RES LEU A 161
BEGIN_RES GLN A 168
REMARK  3 active torsions:
REMARK  status: ('A' for Active; 'I' for Inactive)
REMARK   48  A    between atoms: CA   and  CB  
REMARK   49  A    between atoms: CB   and  CG  
REMARK   50  A    between atoms: CG   and  CD  
REMARK       I    between atoms: CD   and  NE2 
ROOT
ATOM    155  CA  GLN A 168     -22.035  -6.020   8.155  1.00 30.94     0.177 C 
ENDROOT
BRANCH 155 156
ATOM    156  CB  GLN A 168     -23.054  -5.218   8.946  1.00 41.76     0.044 C 
BRANCH 156 157
ATOM    157  CG  GLN A 168     -24.480  -5.416   8.508  1.00 61.20     0.105 C 
BRANCH 157 158
ATOM    158  CD  GLN A 168     -24.970  -4.270   7.644  1.00 75.49     0.215 C 
ATOM    159  NE2 GLN A 168     -24.778  -4.399   6.329  1.00 85.00    -0.370 N 
ATOM    160  H06 GLN A 168     -25.080  -3.668   5.701  1.00 85.00     0.159 HD
ATOM    161  H07 GLN A 168     -24.330  -5.227   5.963  1.00 85.00     0.159 HD
ATOM    162  OE1 GLN A 168     -25.510  -3.275   8.147  1.00 73.64    -0.274 OA
ENDBRANCH 157 158
ENDBRANCH 156 157
ENDBRANCH 155 156
END_RES GLN A 168
ENDMDL
MODEL 5
REMARK VINA RESULT:     -12.4      1.281      2.293
REMARK  Name = human_CD1d_CHAPS_pred.rank_0
REMARK  12 active torsions:
REMARK  status: ('A' for Active; 'I' for Inactive)
REMARK    1  A    between atoms: N_2  and  C_14
REMARK    2  A    between atoms: S_4  and  C_23
REMARK    3  A    between atoms: C_5  and  C_8
REMARK    4  A    between atoms: C_5  and  C_24
REMARK    5  A    between atoms: N_6  and  C_18
REMARK    6  A    between atoms: N_6  and  C_21
REMARK    7  A    between atoms: C_8  and  C_10
REMARK    8  A    between atoms: C_10  and  C_12
REMARK    9  A    between atoms: C_14  and  C_16
REMARK   10  A    between atoms: C_16  and  C_18
REMARK   11  A    between atoms: C_21  and  C_22
REMARK   12  A    between atoms: C_22  and  C_23
REMARK                            x       y       z     vdW  Elec       q    Type
REMARK                         _______ _______ _______ _____ _____    ______ ____
ROOT
ATOM      1  O   UNL     1     -11.132   8.137  21.373  0.00  0.00    +0.000 OA
ATOM      2  O   UNL     1     -12.814   3.345  19.427  0.00  0.00    +0.000 OA
ATOM      3  O   UNL     1     -13.198   3.908  15.272  0.00  0.00    +0.000 OA
ATOM      4  C   UNL     1     -12.462   1.078  14.871  0.00  0.00    +0.000 C 
ATOM      5  C   UNL     1     -12.325  -0.069  15.907  0.00  0.00    +0.000 C 
ATOM      6  C   UNL     1     -11.792   0.554  17.184  0.00  0.00    +0.000 C 
ATOM      7  C   UNL     1     -11.866   2.051  16.941  0.00  0.00    +0.000 C 
ATOM      8  C   UNL     1     -11.516   2.171  15.458  0.00  0.00    +0.000 C 
ATOM      9  C   UNL     1     -11.798   3.624  15.077  0.00  0.00    +0.000 C 
ATOM     10  C   UNL     1     -10.921   4.615  15.933  0.00  0.00    +0.000 C 
ATOM     11  C   UNL     1     -11.054   4.415  17.449  0.00  0.00    +0.000 C 
ATOM     12  C   UNL     1     -10.999   2.943  17.854  0.00  0.00    +0.000 C 
ATOM     13  C   UNL     1     -11.518   2.807  19.322  0.00  0.00    +0.000 C 
ATOM     14  C   UNL     1     -10.481   3.575  20.220  0.00  0.00    +0.000 C 
ATOM     15  C   UNL     1     -10.081   4.941  19.793  0.00  0.00    +0.000 C 
ATOM     16  C   UNL     1     -10.028   5.276  18.277  0.00  0.00    +0.000 C 
ATOM     17  C   UNL     1     -10.264   6.781  17.955  0.00  0.00    +0.000 C 
ATOM     18  C   UNL     1     -10.963   7.608  19.032  0.00  0.00    +0.000 C 
ATOM     19  C   UNL     1     -10.509   7.248  20.415  0.00  0.00    +0.000 C 
ATOM     20  C   UNL     1     -10.954   5.852  20.646  0.00  0.00    +0.000 C 
ATOM     21  C   UNL     1      -8.641   5.017  17.900  0.00  0.00    +0.000 C 
ATOM     22  C   UNL     1     -10.078   1.816  15.105  0.00  0.00    +0.000 C 
ENDROOT
BRANCH   4  24
ATOM     23  C   UNL     1     -12.589   1.608  12.401  0.00  0.00    +0.000 C 
ATOM     24  C   UNL     1     -12.187   0.594  13.439  0.00  0.00    +0.000 C 
BRANCH  24  25
ATOM     25  C   UNL     1     -12.992  -0.736  13.214  0.00  0.00    +0.000 C 
BRANCH  25  26
ATOM     26  C   UNL     1     -14.461  -0.488  13.494  0.00  0.00    +0.000 C 
BRANCH  26  29
ATOM     27  N   UNL     1     -14.503  -0.598  11.036  0.00  0.00    +0.000 NA
ATOM     28  O   UNL     1     -16.413  -0.959  12.176  0.00  0.00    +0.000 OA
ATOM     29  C   UNL     1     -15.228  -0.675  12.175  0.00  0.00    +0.000 C 
BRANCH  27  30
ATOM     30  C   UNL     1     -15.148  -0.941   9.720  0.00  0.00    +0.000 C 
BRANCH  30  31
ATOM     31  C   UNL     1     -14.818   0.092   8.628  0.00  0.00    +0.000 C 
BRANCH  31  32
ATOM     32  C   UNL     1     -14.736   1.466   9.180  0.00  0.00    +0.000 C 
BRANCH  32  33
ATOM     33  N   UNL     1     -15.458   2.425   8.321  0.00  0.00    +0.000 N 
ATOM     34  C   UNL     1     -14.751   2.498   7.060  0.00  0.00    +0.000 C 
ATOM     35  C   UNL     1     -16.840   2.039   8.081  0.00  0.00    +0.000 C 
BRANCH  33  36
ATOM     36  C   UNL     1     -15.428   3.782   8.985  0.00  0.00    +0.000 C 
BRANCH  36  37
ATOM     37  C   UNL     1     -15.278   4.980   7.984  0.00  0.00    +0.000 C 
BRANCH  37  38
ATOM     38  C   UNL     1     -16.306   6.027   8.298  0.00  0.00    +0.000 C 
BRANCH  38  39
ATOM     39  S   UNL     1     -17.310   6.237   6.932  0.00  0.00    +0.000 S 
ATOM     40  O   UNL     1     -16.539   6.883   5.886  0.00  0.00    +0.000 OA
ATOM     41  O   UNL     1     -18.504   7.032   7.263  0.00  0.00    +0.000 OA
ATOM     42  O   UNL     1     -17.762   4.904   6.497  0.00  0.00    +0.000 OA
ENDBRANCH  38  39
ENDBRANCH  37  38
ENDBRANCH  36  37
ENDBRANCH  33  36
ENDBRANCH  32  33
ENDBRANCH  31  32
ENDBRANCH  30  31
ENDBRANCH  27  30
ENDBRANCH  26  29
ENDBRANCH  25  26
ENDBRANCH  24  25
ENDBRANCH   4  24
TORSDOF 12
BEGIN_RES LEU A  10
REMARK  2 active torsions:
REMARK  status: ('A' for Active; 'I' for Inactive)
REMARK    1  A    between atoms: CA   and  CB  
REMARK    2  A    between atoms: CB   and  CG  
ROOT
ATOM      1  CA  LEU A  10     -10.775  -4.871   5.898  1.00 25.14     0.177 C 
ENDROOT
BRANCH   1   2
ATOM      2  CB  LEU A  10     -12.191  -4.387   6.226  1.00 17.87     0.038 C 
BRANCH   2   3
ATOM      3  CG  LEU A  10     -12.447  -2.914   5.903  1.00 24.95    -0.020 C 
ATOM      4  CD2 LEU A  10     -13.762  -2.510   6.478  1.00 26.38     0.009 C 
ATOM      5  CD1 LEU A  10     -12.424  -2.675   4.403  1.00 28.12     0.009 C 
ENDBRANCH   2   3
ENDBRANCH   1   2
END_RES LEU A  10
BEGIN_RES CYS A  12
REMARK  2 active torsions:
REMARK  status: ('A' for Active; 'I' for Inactive)
REMARK    3  A    between atoms: CA   and  CB  
REMARK    4  A    between atoms: CB   and  SG  
ROOT
ATOM      6  CA  CYS A  12      -8.555   0.470   8.750  1.00 23.16     0.185 C 
ENDROOT
BRANCH   6   7
ATOM      7  CB  CYS A  12      -9.828   0.763   9.555  1.00 20.43     0.105 C 
BRANCH   7   8
ATOM      8  SG  CYS A  12     -10.926   2.045   8.877  1.00 24.64    -0.180 SA
ATOM      9  H04 CYS A  12     -10.445   2.469   7.701  1.00 24.64     0.101 HD
ENDBRANCH   7   8
ENDBRANCH   6   7
END_RES CYS A  12
BEGIN_RES GLN A  14
REMARK  3 active torsions:
REMARK  status: ('A' for Active; 'I' for Inactive)
REMARK    5  A    between atoms: CA   and  CB  
REMARK    6  A    between atoms: CB   and  CG  
REMARK    7  A    between atoms: CG   and  CD  
REMARK       I    between atoms: CD   and  NE2 
ROOT
ATOM     10  CA  GLN A  14      -4.645   5.402  11.377  1.00 10.43     0.177 C 
ENDROOT
BRANCH  10  11
ATOM     11  CB  GLN A  14      -5.541   5.549  12.608  1.00 14.45     0.044 C 
BRANCH  11  12
ATOM     12  CG  GLN A  14      -6.763   6.409  12.383  1.00 13.74     0.105 C 
BRANCH  12  13
ATOM     13  CD  GLN A  14      -7.962   5.605  11.940  1.00 16.29     0.215 C 
ATOM     14  NE2 GLN A  14      -8.300   5.704  10.673  1.00  8.57    -0.370 N 
ATOM     15  H06 GLN A  14      -9.092   5.188  10.320  1.00  8.57     0.159 HD
ATOM     16  H07 GLN A  14      -7.766   6.297  10.053  1.00  8.57     0.159 HD
ATOM     17  OE1 GLN A  14      -8.573   4.900  12.728  1.00 23.55    -0.274 OA
ENDBRANCH  12  13
ENDBRANCH  11  12
ENDBRANCH  10  11
END_RES GLN A  14
BEGIN_RES SER A  16
REMARK  2 active torsions:
REMARK  status: ('A' for Active; 'I' for Inactive)
REMARK    8  A    between atoms: CA   and  CB  
REMARK    9  A    between atoms: CB   and  OG  
ROOT
ATOM     18  CA  SER A  16      -1.305  10.019  14.282  1.00  2.34     0.200 C 
ENDROOT
BRANCH  18  19
ATOM     19  CB  SER A  16      -2.242   9.935  15.479  1.00  3.12     0.199 C 
BRANCH  19  20
ATOM     20  OG  SER A  16      -3.457   9.307  15.110  1.00  1.00    -0.398 OA
ATOM     21  H04 SER A  16      -3.300   8.373  14.952  1.00  1.00     0.209 HD
ENDBRANCH  19  20
ENDBRANCH  18  19
END_RES SER A  16
BEGIN_RES LEU A  32
REMARK  2 active torsions:
REMARK  status: ('A' for Active; 'I' for Inactive)
REMARK   10  A    between atoms: CA   and  CB  
REMARK   11  A    between atoms: CB   and  CG  
ROOT
ATOM     22  CA  LEU A  32     -10.272  -4.106   1.587  1.00 16.16     0.177 C 
ENDROOT
BRANCH  22  23
ATOM     23  CB  LEU A  32     -11.613  -3.858   0.880  1.00 12.35     0.038 C 
BRANCH  23  24
ATOM     24  CG  LEU A  32     -12.492  -5.125   0.856  1.00  9.77    -0.020 C 
ATOM     25  CD1 LEU A  32     -13.131  -5.346   2.206  1.00  4.35     0.009 C 
ATOM     26  CD2 LEU A  32     -13.561  -5.017  -0.201  1.00 10.60     0.009 C 
ENDBRANCH  23  24
ENDBRANCH  22  23
END_RES LEU A  32
BEGIN_RES HIS A  38
REMARK  2 active torsions:
REMARK  status: ('A' for Active; 'I' for Inactive)
REMARK   12  A    between atoms: CA   and  CB  
REMARK   13  A    between atoms: CB   and  CG  
ROOT
ATOM     27  CA  HIS A  38     -10.959   4.941   1.621  1.00 16.94     0.182 C 
ENDROOT
BRANCH  27  28
ATOM     28  CB  HIS A  38     -11.810   4.840   2.881  1.00 15.47     0.095 C 
BRANCH  28  29
ATOM     29  CG  HIS A  38     -13.274   5.015   2.636  1.00 18.62     0.053 A 
ATOM     30  CD2 HIS A  38     -13.954   5.337   1.510  1.00 15.06     0.116 A 
ATOM     31  NE2 HIS A  38     -15.288   5.334   1.832  1.00 18.12    -0.359 N 
ATOM     32  CE1 HIS A  38     -15.423   5.023   3.107  1.00 14.78     0.207 A 
ATOM     33  H06 HIS A  38     -16.044   5.538   1.195  1.00 18.12     0.166 HD
ATOM     34  ND1 HIS A  38     -14.223   4.826   3.617  1.00 16.58    -0.247 NA
ENDBRANCH  28  29
ENDBRANCH  27  28
END_RES HIS A  38
BEGIN_RES TRP A  63
REMARK  2 active torsions:
REMARK  status: ('A' for Active; 'I' for Inactive)
REMARK   14  A    between atoms: CA   and  CB  
REMARK   15  A    between atoms: CB   and  CG  
ROOT
ATOM     35  CA  TRP A  63     -22.437   6.257   6.543  1.00 27.04     0.181 C 
ENDROOT
BRANCH  35  36
ATOM     36  CB  TRP A  63     -22.360   6.642   5.068  1.00 31.37     0.075 C 
BRANCH  36  37
ATOM     37  CG  TRP A  63     -20.974   6.552   4.466  1.00 34.37    -0.028 A 
ATOM     38  CD2 TRP A  63     -20.237   7.602   3.823  1.00 33.79    -0.002 A 
ATOM     39  CE3 TRP A  63     -20.519   8.931   3.501  1.00 32.99     0.014 A 
ATOM     40  CE2 TRP A  63     -18.970   7.076   3.487  1.00 35.84     0.042 A 
ATOM     41  CZ3 TRP A  63     -19.545   9.684   2.861  1.00 32.93     0.001 A 
ATOM     42  CH2 TRP A  63     -18.295   9.132   2.539  1.00 39.24     0.002 A 
ATOM     43  CZ2 TRP A  63     -17.989   7.833   2.844  1.00 37.99     0.030 A 
ATOM     44  NE1 TRP A  63     -18.945   5.774   3.904  1.00 37.98    -0.365 N 
ATOM     45  H06 TRP A  63     -18.166   5.139   3.799  1.00 37.98     0.165 HD
ATOM     46  CD1 TRP A  63     -20.151   5.470   4.487  1.00 38.16     0.096 A 
ENDBRANCH  36  37
ENDBRANCH  35  36
END_RES TRP A  63
BEGIN_RES LEU A  66
REMARK  2 active torsions:
REMARK  status: ('A' for Active; 'I' for Inactive)
REMARK   16  A    between atoms: CA   and  CB  
REMARK   17  A    between atoms: CB   and  CG  
ROOT
ATOM     47  CA  LEU A  66     -20.004   6.489  11.120  1.00 10.90     0.177 C 
ENDROOT
BRANCH  47  48
ATOM     48  CB  LEU A  66     -19.626   5.453  10.069  1.00 13.57     0.038 C 
BRANCH  48  49
ATOM     49  CG  LEU A  66     -19.748   3.981  10.462  1.00  8.73    -0.020 C 
ATOM     50  CD1 LEU A  66     -20.034   3.131   9.252  1.00 14.23     0.009 C 
ATOM     51  CD2 LEU A  66     -18.455   3.549  11.104  1.00  1.92     0.009 C 
ENDBRANCH  48  49
ENDBRANCH  47  48
END_RES LEU A  66
BEGIN_RES PHE A  70
REMARK  2 active torsions:
REMARK  status: ('A' for Active; 'I' for Inactive)
REMARK   18  A    between atoms: CA   and  CB  
REMARK   19  A    between atoms: CB   and  CG  
ROOT
ATOM     52  CA  PHE A  70     -14.974   9.434  13.165  1.00  8.78     0.180 C 
ENDROOT
BRANCH  52  53
ATOM     53  CB  PHE A  70     -14.707   9.132  11.681  1.00  6.33     0.073 C 
BRANCH  53  54
ATOM     54  CG  PHE A  70     -13.887   7.890  11.461  1.00  3.42    -0.056 A 
ATOM     55  CD1 PHE A  70     -13.584   7.449  10.182  1.00 13.88     0.007 A 
ATOM     56  CE1 PHE A  70     -12.858   6.262   9.983  1.00 12.71     0.001 A 
ATOM     57  CZ  PHE A  70     -12.429   5.510  11.077  1.00  4.21     0.000 A 
ATOM     58  CE2 PHE A  70     -12.723   5.940  12.358  1.00  2.83     0.001 A 
ATOM     59  CD2 PHE A  70     -13.450   7.128  12.546  1.00  1.00     0.007 A 
ENDBRANCH  53  54
ENDBRANCH  52  53
END_RES PHE A  70
BEGIN_RES TYR A  73
REMARK  3 active torsions:
REMARK  status: ('A' for Active; 'I' for Inactive)
REMARK   20  A    between atoms: CA   and  CB  
REMARK   21  A    between atoms: CB   and  CG  
REMARK   22  A    between atoms: CZ   and  OH  
ROOT
ATOM     60  CA  TYR A  73     -13.212  10.166  17.260  1.00 12.17     0.180 C 
ENDROOT
BRANCH  60  61
ATOM     61  CB  TYR A  73     -13.301   8.846  16.517  1.00 12.84     0.073 C 
BRANCH  61  62
ATOM     62  CG  TYR A  73     -13.854   7.743  17.351  1.00 15.89    -0.056 A 
ATOM     63  CD1 TYR A  73     -14.044   6.483  16.828  1.00 16.00     0.010 A 
ATOM     64  CE1 TYR A  73     -14.591   5.457  17.598  1.00 13.55     0.037 A 
ATOM     65  CZ  TYR A  73     -14.948   5.710  18.907  1.00 18.13     0.065 A 
ATOM     66  CE2 TYR A  73     -14.767   6.959  19.454  1.00 15.89     0.037 A 
ATOM     67  CD2 TYR A  73     -14.220   7.970  18.673  1.00 21.86     0.010 A 
BRANCH  65  68
ATOM     68  OH  TYR A  73     -15.482   4.713  19.685  1.00 12.12    -0.361 OA
ATOM     69  H08 TYR A  73     -16.251   5.048  20.153  1.00 12.12     0.217 HD
ENDBRANCH  65  68
ENDBRANCH  61  62
ENDBRANCH  60  61
END_RES TYR A  73
BEGIN_RES PHE A  77
REMARK  2 active torsions:
REMARK  status: ('A' for Active; 'I' for Inactive)
REMARK   23  A    between atoms: CA   and  CB  
REMARK   24  A    between atoms: CB   and  CG  
ROOT
ATOM     70  CA  PHE A  77      -8.400  10.581  20.110  1.00 17.17     0.180 C 
ENDROOT
BRANCH  70  71
ATOM     71  CB  PHE A  77      -8.228   9.750  18.851  1.00 10.44     0.073 C 
BRANCH  71  72
ATOM     72  CG  PHE A  77      -7.274   8.607  19.008  1.00  6.07    -0.056 A 
ATOM     73  CD2 PHE A  77      -6.428   8.256  17.981  1.00  9.61     0.007 A 
ATOM     74  CE2 PHE A  77      -5.538   7.197  18.119  1.00  1.00     0.001 A 
ATOM     75  CZ  PHE A  77      -5.493   6.482  19.304  1.00  1.92     0.000 A 
ATOM     76  CE1 PHE A  77      -6.331   6.822  20.342  1.00  9.25     0.001 A 
ATOM     77  CD1 PHE A  77      -7.221   7.885  20.189  1.00  9.63     0.007 A 
ENDBRANCH  71  72
ENDBRANCH  70  71
END_RES PHE A  77
BEGIN_RES LEU A  96
REMARK  2 active torsions:
REMARK  status: ('A' for Active; 'I' for Inactive)
REMARK   25  A    between atoms: CA   and  CB  
REMARK   26  A    between atoms: CB   and  CG  
ROOT
ATOM     78  CA  LEU A  96       0.717   6.481  17.359  1.00 16.08     0.177 C 
ENDROOT
BRANCH  78  79
ATOM     79  CB  LEU A  96      -0.370   7.101  18.230  1.00 18.83     0.038 C 
BRANCH  79  80
ATOM     80  CG  LEU A  96      -0.203   6.850  19.729  1.00 19.03    -0.020 C 
ATOM     81  CD1 LEU A  96       0.493   8.040  20.348  1.00 28.17     0.009 C 
ATOM     82  CD2 LEU A  96      -1.552   6.687  20.390  1.00 22.01     0.009 C 
ENDBRANCH  79  80
ENDBRANCH  78  79
END_RES LEU A  96
BEGIN_RES VAL A  98
REMARK  1 active torsions:
REMARK  status: ('A' for Active; 'I' for Inactive)
REMARK   27  A    between atoms: CA   and  CB  
ROOT
ATOM     83  CA  VAL A  98      -3.928   2.082  14.897  1.00 19.83     0.180 C 
ENDROOT
BRANCH  83  84
ATOM     84  CB  VAL A  98      -5.203   2.807  15.281  1.00 17.87     0.009 C 
ATOM     85  CG2 VAL A  98      -5.152   3.209  16.732  1.00 29.90     0.012 C 
ATOM     86  CG1 VAL A  98      -6.395   1.912  15.013  1.00 14.79     0.012 C 
ENDBRANCH  83  84
END_RES VAL A  98
BEGIN_RES ASN A 112
REMARK  2 active torsions:
REMARK  status: ('A' for Active; 'I' for Inactive)
REMARK   28  A    between atoms: CA   and  CB  
REMARK   29  A    between atoms: CB   and  CG  
REMARK       I    between atoms: CG   and  ND2 
ROOT
ATOM     87  CA  ASN A 112     -11.790  -8.793  14.069  1.00 37.70     0.185 C 
ENDROOT
BRANCH  87  88
ATOM     88  CB  ASN A 112     -12.992  -7.945  14.465  1.00 26.24     0.137 C 
BRANCH  88  89
ATOM     89  CG  ASN A 112     -13.829  -8.576  15.555  1.00 21.77     0.217 C 
ATOM     90  ND2 ASN A 112     -14.986  -9.115  15.170  1.00  9.31    -0.370 N 
ATOM     91  H04 ASN A 112     -15.592  -9.550  15.851  1.00  9.31     0.159 HD
ATOM     92  H05 ASN A 112     -15.257  -9.088  14.197  1.00  9.31     0.159 HD
ATOM     93  OD1 ASN A 112     -13.447  -8.577  16.731  1.00 21.61    -0.274 OA
ENDBRANCH  88  89
ENDBRANCH  87  88
END_RES ASN A 112
BEGIN_RES PHE A 114
REMARK  2 active torsions:
REMARK  status: ('A' for Active; 'I' for Inactive)
REMARK   30  A    between atoms: CA   and  CB  
REMARK   31  A    between atoms: CB   and  CG  
ROOT
ATOM     94  CA  PHE A 114      -7.754  -3.619  17.012  1.00 26.06     0.180 C 
ENDROOT
BRANCH  94  95
ATOM     95  CB  PHE A 114      -8.890  -3.080  17.867  1.00 19.95     0.073 C 
BRANCH  95  96
ATOM     96  CG  PHE A 114      -8.700  -1.655  18.274  1.00 17.65    -0.056 A 
ATOM     97  CD1 PHE A 114      -9.108  -1.212  19.530  1.00 13.01     0.007 A 
ATOM     98  CE1 PHE A 114      -8.958   0.119  19.898  1.00  6.74     0.001 A 
ATOM     99  CZ  PHE A 114      -8.392   1.029  19.010  1.00  6.27     0.000 A 
ATOM    100  CE2 PHE A 114      -7.981   0.599  17.758  1.00 17.36     0.001 A 
ATOM    101  CD2 PHE A 114      -8.136  -0.742  17.393  1.00 18.39     0.007 A 
ENDBRANCH  95  96
ENDBRANCH  94  95
END_RES PHE A 114
BEGIN_RES VAL A 116
REMARK  1 active torsions:
REMARK  status: ('A' for Active; 'I' for Inactive)
REMARK   32  A    between atoms: CA   and  CB  
ROOT
ATOM    102  CA  VAL A 116      -2.467   0.283  18.565  1.00 13.48     0.180 C 
ENDROOT
BRANCH 102 103
ATOM    103  CB  VAL A 116      -3.101   1.238  19.599  1.00 20.86     0.009 C 
ATOM    104  CG1 VAL A 116      -2.700   2.680  19.277  1.00 25.01     0.012 C 
ATOM    105  CG2 VAL A 116      -4.602   1.073  19.635  1.00 25.34     0.012 C 
ENDBRANCH 102 103
END_RES VAL A 116
BEGIN_RES ILE A 123
REMARK  2 active torsions:
REMARK  status: ('A' for Active; 'I' for Inactive)
REMARK   33  A    between atoms: CA   and  CB  
REMARK   34  A    between atoms: CB   and  CG1 
ROOT
ATOM    106  CA  ILE A 123       1.557  -1.626  23.222  1.00 15.07     0.180 C 
ENDROOT
BRANCH 106 107
ATOM    107  CB  ILE A 123       1.697  -0.112  23.461  1.00 14.41     0.013 C 
ATOM    108  CG2 ILE A 123       3.109   0.211  23.918  1.00 18.35     0.012 C 
BRANCH 107 109
ATOM    109  CG1 ILE A 123       1.365   0.659  22.186  1.00 15.23     0.002 C 
ATOM    110  CD1 ILE A 123       0.219   1.628  22.344  1.00 14.67     0.005 C 
ENDBRANCH 107 109
ENDBRANCH 106 107
END_RES ILE A 123
BEGIN_RES LEU A 124
REMARK  2 active torsions:
REMARK  status: ('A' for Active; 'I' for Inactive)
REMARK   35  A    between atoms: CA   and  CB  
REMARK   36  A    between atoms: CB   and  CG  
ROOT
ATOM    111  CA  LEU A 124      -2.057  -2.686  23.524  1.00 11.86     0.177 C 
ENDROOT
BRANCH 111 112
ATOM    112  CB  LEU A 124      -2.698  -1.652  24.429  1.00 14.60     0.038 C 
BRANCH 112 113
ATOM    113  CG  LEU A 124      -2.598  -0.248  23.853  1.00 16.19    -0.020 C 
ATOM    114  CD1 LEU A 124      -3.982   0.178  23.326  1.00 22.07     0.009 C 
ATOM    115  CD2 LEU A 124      -2.086   0.695  24.912  1.00  9.12     0.009 C 
ENDBRANCH 112 113
ENDBRANCH 111 112
END_RES LEU A 124
BEGIN_RES PHE A 126
REMARK  2 active torsions:
REMARK  status: ('A' for Active; 'I' for Inactive)
REMARK   37  A    between atoms: CA   and  CB  
REMARK   38  A    between atoms: CB   and  CG  
ROOT
ATOM    116  CA  PHE A 126      -8.784  -4.792  22.233  1.00 23.15     0.180 C 
ENDROOT
BRANCH 116 117
ATOM    117  CB  PHE A 126      -9.823  -4.011  21.461  1.00 20.65     0.073 C 
BRANCH 117 118
ATOM    118  CG  PHE A 126     -10.939  -3.524  22.301  1.00 23.65    -0.056 A 
ATOM    119  CD2 PHE A 126     -12.220  -4.018  22.128  1.00 36.63     0.007 A 
ATOM    120  CE2 PHE A 126     -13.276  -3.557  22.925  1.00 36.27     0.001 A 
ATOM    121  CZ  PHE A 126     -13.040  -2.596  23.897  1.00 18.06     0.000 A 
ATOM    122  CE1 PHE A 126     -11.763  -2.103  24.074  1.00  5.50     0.001 A 
ATOM    123  CD1 PHE A 126     -10.717  -2.569  23.278  1.00 15.29     0.007 A 
ENDBRANCH 117 118
ENDBRANCH 116 117
END_RES PHE A 126
BEGIN_RES TRP A 131
REMARK  2 active torsions:
REMARK  status: ('A' for Active; 'I' for Inactive)
REMARK   39  A    between atoms: CA   and  CB  
REMARK   40  A    between atoms: CB   and  CG  
ROOT
ATOM    124  CA  TRP A 131      -8.096  -3.335  26.542  1.00 14.52     0.181 C 
ENDROOT
BRANCH 124 125
ATOM    125  CB  TRP A 131      -7.651  -1.877  26.607  1.00 13.06     0.075 C 
BRANCH 125 126
ATOM    126  CG  TRP A 131      -8.019  -1.060  25.388  1.00 16.97    -0.028 A 
ATOM    127  CD2 TRP A 131      -9.094  -0.124  25.283  1.00 11.34    -0.002 A 
ATOM    128  CE2 TRP A 131      -9.066   0.408  23.979  1.00  5.87     0.042 A 
ATOM    129  CE3 TRP A 131     -10.082   0.316  26.171  1.00  3.80     0.014 A 
ATOM    130  CZ2 TRP A 131      -9.987   1.362  23.541  1.00  1.35     0.030 A 
ATOM    131  NE1 TRP A 131      -8.022  -0.178  23.318  1.00 13.90    -0.365 N 
ATOM    132  CH2 TRP A 131     -10.944   1.776  24.433  1.00  1.00     0.002 A 
ATOM    133  CZ3 TRP A 131     -10.999   1.259  25.741  1.00  1.00     0.001 A 
ATOM    134  CD1 TRP A 131      -7.396  -1.059  24.170  1.00 17.22     0.096 A 
ATOM    135  H07 TRP A 131      -7.753   0.005  22.362  1.00 13.90     0.165 HD
ENDBRANCH 125 126
ENDBRANCH 124 125
END_RES TRP A 131
BEGIN_RES LEU A 148
REMARK  2 active torsions:
REMARK  status: ('A' for Active; 'I' for Inactive)
REMARK   41  A    between atoms: CA   and  CB  
REMARK   42  A    between atoms: CB   and  CG  
ROOT
ATOM    136  CA  LEU A 148      -9.018   3.259  29.295  1.00 16.99     0.177 C 
ENDROOT
BRANCH 136 137
ATOM    137  CB  LEU A 148      -8.166   2.574  28.236  1.00  6.39     0.038 C 
BRANCH 137 138
ATOM    138  CG  LEU A 148      -7.998   3.177  26.857  1.00  1.00    -0.020 C 
ATOM    139  CD2 LEU A 148      -6.789   2.601  26.179  1.00  1.00     0.009 C 
ATOM    140  CD1 LEU A 148      -7.859   4.681  27.009  1.00  2.71     0.009 C 
ENDBRANCH 137 138
ENDBRANCH 136 137
END_RES LEU A 148
BEGIN_RES THR A 154
REMARK  2 active torsions:
REMARK  status: ('A' for Active; 'I' for Inactive)
REMARK   43  A    between atoms: CA   and  CB  
REMARK   44  A    between atoms: CB   and  OG1 
ROOT
ATOM    141  CA  THR A 154     -15.990   3.959  24.426  1.00 20.45     0.205 C 
ENDROOT
BRANCH 141 142
ATOM    142  CB  THR A 154     -14.777   4.829  24.694  1.00 16.79     0.146 C 
ATOM    143  CG2 THR A 154     -13.645   4.453  23.757  1.00 20.24     0.042 C 
BRANCH 142 144
ATOM    144  OG1 THR A 154     -15.129   6.200  24.467  1.00 18.84    -0.393 OA
ATOM    145  H06 THR A 154     -15.187   6.364  23.524  1.00 18.84     0.210 HD
ENDBRANCH 142 144
ENDBRANCH 141 142
END_RES THR A 154
BEGIN_RES VAL A 158
REMARK  1 active torsions:
REMARK  status: ('A' for Active; 'I' for Inactive)
REMARK   45  A    between atoms: CA   and  CB  
ROOT
ATOM    146  CA  VAL A 158     -15.487  -0.189  19.892  1.00 15.49     0.180 C 
ENDROOT
BRANCH 146 147
ATOM    147  CB  VAL A 158     -14.291  -0.273  20.822  1.00  6.52     0.009 C 
ATOM    148  CG1 VAL A 158     -13.152  -1.021  20.169  1.00  1.00     0.012 C 
ATOM    149  CG2 VAL A 158     -13.870   1.116  21.190  1.00  5.99     0.012 C 
ENDBRANCH 146 147
END_RES VAL A 158
BEGIN_RES LEU A 161
REMARK  2 active torsions:
REMARK  status: ('A' for Active; 'I' for Inactive)
REMARK   46  A    between atoms: CA   and  CB  
REMARK   47  A    between atoms: CB   and  CG  
ROOT
ATOM    150  CA  LEU A 161     -18.031  -1.858  15.935  1.00 13.31     0.177 C 
ENDROOT
BRANCH 150 151
ATOM    151  CB  LEU A 161     -17.046  -0.706  16.001  1.00 14.13     0.038 C 
BRANCH 151 152
ATOM    152  CG  LEU A 161     -17.427   0.552  15.231  1.00 19.39    -0.020 C 
ATOM    153  CD2 LEU A 161     -16.532   1.700  15.631  1.00 27.75     0.009 C 
ATOM    154  CD1 LEU A 161     -18.863   0.890  15.530  1.00 18.59     0.009 C 
ENDBRANCH 151 152
ENDBRANCH 150 151
END_RES LEU A 161
BEGIN_RES GLN A 168
REMARK  3 active torsions:
REMARK  status: ('A' for Active; 'I' for Inactive)
REMARK   48  A    between atoms: CA   and  CB  
REMARK   49  A    between atoms: CB   and  CG  
REMARK   50  A    between atoms: CG   and  CD  
REMARK       I    between atoms: CD   and  NE2 
ROOT
ATOM    155  CA  GLN A 168     -22.035  -6.020   8.155  1.00 30.94     0.177 C 
ENDROOT
BRANCH 155 156
ATOM    156  CB  GLN A 168     -23.054  -5.218   8.946  1.00 41.76     0.044 C 
BRANCH 156 157
ATOM    157  CG  GLN A 168     -24.423  -5.839   9.010  1.00 61.20     0.105 C 
BRANCH 157 158
ATOM    158  CD  GLN A 168     -24.899  -6.013  10.440  1.00 75.49     0.215 C 
ATOM    159  NE2 GLN A 168     -23.961  -5.941  11.386  1.00 85.00    -0.370 N 
ATOM    160  H06 GLN A 168     -24.215  -6.051  12.358  1.00 85.00     0.159 HD
ATOM    161  H07 GLN A 168     -22.997  -5.777  11.131  1.00 85.00     0.159 HD
ATOM    162  OE1 GLN A 168     -26.094  -6.216  10.695  1.00 73.64    -0.274 OA
ENDBRANCH 157 158
ENDBRANCH 156 157
ENDBRANCH 155 156
END_RES GLN A 168
ENDMDL
MODEL 6
REMARK VINA RESULT:     -12.2      2.242      6.368
REMARK  Name = human_CD1d_CHAPS_pred.rank_0
REMARK  12 active torsions:
REMARK  status: ('A' for Active; 'I' for Inactive)
REMARK    1  A    between atoms: N_2  and  C_14
REMARK    2  A    between atoms: S_4  and  C_23
REMARK    3  A    between atoms: C_5  and  C_8
REMARK    4  A    between atoms: C_5  and  C_24
REMARK    5  A    between atoms: N_6  and  C_18
REMARK    6  A    between atoms: N_6  and  C_21
REMARK    7  A    between atoms: C_8  and  C_10
REMARK    8  A    between atoms: C_10  and  C_12
REMARK    9  A    between atoms: C_14  and  C_16
REMARK   10  A    between atoms: C_16  and  C_18
REMARK   11  A    between atoms: C_21  and  C_22
REMARK   12  A    between atoms: C_22  and  C_23
REMARK                            x       y       z     vdW  Elec       q    Type
REMARK                         _______ _______ _______ _____ _____    ______ ____
ROOT
ATOM      1  O   UNL     1     -14.655  -1.067   8.187  0.00  0.00    +0.000 OA
ATOM      2  O   UNL     1     -12.527  -1.593  13.165  0.00  0.00    +0.000 OA
ATOM      3  O   UNL     1     -10.504   2.027  13.894  0.00  0.00    +0.000 OA
ATOM      4  C   UNL     1     -11.130   1.740  16.765  0.00  0.00    +0.000 C 
ATOM      5  C   UNL     1     -11.711   0.528  17.538  0.00  0.00    +0.000 C 
ATOM      6  C   UNL     1     -12.683  -0.166  16.601  0.00  0.00    +0.000 C 
ATOM      7  C   UNL     1     -12.460   0.500  15.254  0.00  0.00    +0.000 C 
ATOM      8  C   UNL     1     -12.187   1.954  15.638  0.00  0.00    +0.000 C 
ATOM      9  C   UNL     1     -11.722   2.645  14.357  0.00  0.00    +0.000 C 
ATOM     10  C   UNL     1     -12.827   2.567  13.237  0.00  0.00    +0.000 C 
ATOM     11  C   UNL     1     -13.314   1.143  12.939  0.00  0.00    +0.000 C 
ATOM     12  C   UNL     1     -13.582   0.337  14.209  0.00  0.00    +0.000 C 
ATOM     13  C   UNL     1     -13.695  -1.174  13.830  0.00  0.00    +0.000 C 
ATOM     14  C   UNL     1     -14.972  -1.299  12.922  0.00  0.00    +0.000 C 
ATOM     15  C   UNL     1     -15.116  -0.333  11.803  0.00  0.00    +0.000 C 
ATOM     16  C   UNL     1     -14.550   1.105  11.964  0.00  0.00    +0.000 C 
ATOM     17  C   UNL     1     -14.147   1.779  10.619  0.00  0.00    +0.000 C 
ATOM     18  C   UNL     1     -13.902   0.847   9.435  0.00  0.00    +0.000 C 
ATOM     19  C   UNL     1     -14.881  -0.287   9.387  0.00  0.00    +0.000 C 
ATOM     20  C   UNL     1     -14.619  -1.112  10.591  0.00  0.00    +0.000 C 
ATOM     21  C   UNL     1     -15.683   1.884  12.459  0.00  0.00    +0.000 C 
ATOM     22  C   UNL     1     -13.380   2.702  16.220  0.00  0.00    +0.000 C 
ENDROOT
BRANCH   4  24
ATOM     23  C   UNL     1      -9.480   3.536  17.437  0.00  0.00    +0.000 C 
ATOM     24  C   UNL     1     -10.832   2.926  17.695  0.00  0.00    +0.000 C 
BRANCH  24  25
ATOM     25  C   UNL     1     -10.900   2.408  19.177  0.00  0.00    +0.000 C 
BRANCH  25  26
ATOM     26  C   UNL     1     -11.374   3.530  20.080  0.00  0.00    +0.000 C 
BRANCH  26  29
ATOM     27  N   UNL     1     -10.520   4.703  22.068  0.00  0.00    +0.000 NA
ATOM     28  O   UNL     1      -9.127   3.359  20.913  0.00  0.00    +0.000 OA
ATOM     29  C   UNL     1     -10.224   3.876  21.040  0.00  0.00    +0.000 C 
BRANCH  27  30
ATOM     30  C   UNL     1      -9.495   4.948  23.143  0.00  0.00    +0.000 C 
BRANCH  30  31
ATOM     31  C   UNL     1      -8.464   6.012  22.726  0.00  0.00    +0.000 C 
BRANCH  31  32
ATOM     32  C   UNL     1      -7.090   5.638  23.142  0.00  0.00    +0.000 C 
BRANCH  32  33
ATOM     33  N   UNL     1      -6.178   5.600  21.983  0.00  0.00    +0.000 N 
ATOM     34  C   UNL     1      -5.002   6.370  22.330  0.00  0.00    +0.000 C 
ATOM     35  C   UNL     1      -5.782   4.249  21.619  0.00  0.00    +0.000 C 
BRANCH  33  36
ATOM     36  C   UNL     1      -6.868   6.252  20.807  0.00  0.00    +0.000 C 
BRANCH  36  37
ATOM     37  C   UNL     1      -5.902   7.047  19.860  0.00  0.00    +0.000 C 
BRANCH  37  38
ATOM     38  C   UNL     1      -6.017   6.511  18.463  0.00  0.00    +0.000 C 
BRANCH  38  39
ATOM     39  S   UNL     1      -5.133   7.525  17.412  0.00  0.00    +0.000 S 
ATOM     40  O   UNL     1      -4.323   8.427  18.211  0.00  0.00    +0.000 OA
ATOM     41  O   UNL     1      -6.027   8.281  16.520  0.00  0.00    +0.000 OA
ATOM     42  O   UNL     1      -4.279   6.667  16.572  0.00  0.00    +0.000 OA
ENDBRANCH  38  39
ENDBRANCH  37  38
ENDBRANCH  36  37
ENDBRANCH  33  36
ENDBRANCH  32  33
ENDBRANCH  31  32
ENDBRANCH  30  31
ENDBRANCH  27  30
ENDBRANCH  26  29
ENDBRANCH  25  26
ENDBRANCH  24  25
ENDBRANCH   4  24
TORSDOF 12
BEGIN_RES LEU A  10
REMARK  2 active torsions:
REMARK  status: ('A' for Active; 'I' for Inactive)
REMARK    1  A    between atoms: CA   and  CB  
REMARK    2  A    between atoms: CB   and  CG  
ROOT
ATOM      1  CA  LEU A  10     -10.775  -4.871   5.898  1.00 25.14     0.177 C 
ENDROOT
BRANCH   1   2
ATOM      2  CB  LEU A  10     -12.191  -4.387   6.226  1.00 17.87     0.038 C 
BRANCH   2   3
ATOM      3  CG  LEU A  10     -12.756  -3.366   5.236  1.00 24.95    -0.020 C 
ATOM      4  CD2 LEU A  10     -11.958  -2.109   5.325  1.00 26.38     0.009 C 
ATOM      5  CD1 LEU A  10     -14.223  -3.090   5.518  1.00 28.12     0.009 C 
ENDBRANCH   2   3
ENDBRANCH   1   2
END_RES LEU A  10
BEGIN_RES CYS A  12
REMARK  2 active torsions:
REMARK  status: ('A' for Active; 'I' for Inactive)
REMARK    3  A    between atoms: CA   and  CB  
REMARK    4  A    between atoms: CB   and  SG  
ROOT
ATOM      6  CA  CYS A  12      -8.555   0.470   8.750  1.00 23.16     0.185 C 
ENDROOT
BRANCH   6   7
ATOM      7  CB  CYS A  12      -9.828   0.763   9.555  1.00 20.43     0.105 C 
BRANCH   7   8
ATOM      8  SG  CYS A  12     -10.567   2.408   9.313  1.00 24.64    -0.180 SA
ATOM      9  H04 CYS A  12     -11.902   2.310   9.362  1.00 24.64     0.101 HD
ENDBRANCH   7   8
ENDBRANCH   6   7
END_RES CYS A  12
BEGIN_RES GLN A  14
REMARK  3 active torsions:
REMARK  status: ('A' for Active; 'I' for Inactive)
REMARK    5  A    between atoms: CA   and  CB  
REMARK    6  A    between atoms: CB   and  CG  
REMARK    7  A    between atoms: CG   and  CD  
REMARK       I    between atoms: CD   and  NE2 
ROOT
ATOM     10  CA  GLN A  14      -4.645   5.402  11.377  1.00 10.43     0.177 C 
ENDROOT
BRANCH  10  11
ATOM     11  CB  GLN A  14      -5.541   5.549  12.608  1.00 14.45     0.044 C 
BRANCH  11  12
ATOM     12  CG  GLN A  14      -6.534   6.685  12.517  1.00 13.74     0.105 C 
BRANCH  12  13
ATOM     13  CD  GLN A  14      -5.873   8.039  12.622  1.00 16.29     0.215 C 
ATOM     14  NE2 GLN A  14      -6.404   9.007  11.907  1.00  8.57    -0.370 N 
ATOM     15  H06 GLN A  14      -6.005   9.934  11.939  1.00  8.57     0.159 HD
ATOM     16  H07 GLN A  14      -7.210   8.823  11.327  1.00  8.57     0.159 HD
ATOM     17  OE1 GLN A  14      -4.900   8.211  13.340  1.00 23.55    -0.274 OA
ENDBRANCH  12  13
ENDBRANCH  11  12
ENDBRANCH  10  11
END_RES GLN A  14
BEGIN_RES SER A  16
REMARK  2 active torsions:
REMARK  status: ('A' for Active; 'I' for Inactive)
REMARK    8  A    between atoms: CA   and  CB  
REMARK    9  A    between atoms: CB   and  OG  
ROOT
ATOM     18  CA  SER A  16      -1.305  10.019  14.282  1.00  2.34     0.200 C 
ENDROOT
BRANCH  18  19
ATOM     19  CB  SER A  16      -2.242   9.935  15.479  1.00  3.12     0.199 C 
BRANCH  19  20
ATOM     20  OG  SER A  16      -2.180   8.646  16.064  1.00  1.00    -0.398 OA
ATOM     21  H04 SER A  16      -1.500   8.634  16.741  1.00  1.00     0.209 HD
ENDBRANCH  19  20
ENDBRANCH  18  19
END_RES SER A  16
BEGIN_RES LEU A  32
REMARK  2 active torsions:
REMARK  status: ('A' for Active; 'I' for Inactive)
REMARK   10  A    between atoms: CA   and  CB  
REMARK   11  A    between atoms: CB   and  CG  
ROOT
ATOM     22  CA  LEU A  32     -10.272  -4.106   1.587  1.00 16.16     0.177 C 
ENDROOT
BRANCH  22  23
ATOM     23  CB  LEU A  32     -11.613  -3.858   0.880  1.00 12.35     0.038 C 
BRANCH  23  24
ATOM     24  CG  LEU A  32     -12.502  -5.119   0.876  1.00  9.77    -0.020 C 
ATOM     25  CD1 LEU A  32     -13.054  -5.376   2.258  1.00  4.35     0.009 C 
ATOM     26  CD2 LEU A  32     -13.635  -4.973  -0.105  1.00 10.60     0.009 C 
ENDBRANCH  23  24
ENDBRANCH  22  23
END_RES LEU A  32
BEGIN_RES HIS A  38
REMARK  2 active torsions:
REMARK  status: ('A' for Active; 'I' for Inactive)
REMARK   12  A    between atoms: CA   and  CB  
REMARK   13  A    between atoms: CB   and  CG  
ROOT
ATOM     27  CA  HIS A  38     -10.959   4.941   1.621  1.00 16.94     0.182 C 
ENDROOT
BRANCH  27  28
ATOM     28  CB  HIS A  38     -11.810   4.840   2.881  1.00 15.47     0.095 C 
BRANCH  28  29
ATOM     29  CG  HIS A  38     -12.979   3.918   2.748  1.00 18.62     0.053 A 
ATOM     30  CD2 HIS A  38     -14.145   4.053   2.071  1.00 15.06     0.116 A 
ATOM     31  NE2 HIS A  38     -14.855   2.896   2.260  1.00 18.12    -0.359 N 
ATOM     32  CE1 HIS A  38     -14.154   2.079   3.023  1.00 14.78     0.207 A 
ATOM     33  H06 HIS A  38     -15.768   2.699   1.875  1.00 18.12     0.166 HD
ATOM     34  ND1 HIS A  38     -13.018   2.672   3.333  1.00 16.58    -0.247 NA
ENDBRANCH  28  29
ENDBRANCH  27  28
END_RES HIS A  38
BEGIN_RES TRP A  63
REMARK  2 active torsions:
REMARK  status: ('A' for Active; 'I' for Inactive)
REMARK   14  A    between atoms: CA   and  CB  
REMARK   15  A    between atoms: CB   and  CG  
ROOT
ATOM     35  CA  TRP A  63     -22.437   6.257   6.543  1.00 27.04     0.181 C 
ENDROOT
BRANCH  35  36
ATOM     36  CB  TRP A  63     -22.360   6.642   5.068  1.00 31.37     0.075 C 
BRANCH  36  37
ATOM     37  CG  TRP A  63     -20.953   6.780   4.526  1.00 34.37    -0.028 A 
ATOM     38  CD2 TRP A  63     -19.887   5.826   4.627  1.00 33.79    -0.002 A 
ATOM     39  CE3 TRP A  63     -19.752   4.580   5.244  1.00 32.99     0.014 A 
ATOM     40  CE2 TRP A  63     -18.786   6.353   3.916  1.00 35.84     0.042 A 
ATOM     41  CZ3 TRP A  63     -18.542   3.909   5.135  1.00 32.93     0.001 A 
ATOM     42  CH2 TRP A  63     -17.466   4.460   4.422  1.00 39.24     0.002 A 
ATOM     43  CZ2 TRP A  63     -17.569   5.679   3.806  1.00 37.99     0.030 A 
ATOM     44  NE1 TRP A  63     -19.169   7.566   3.414  1.00 37.98    -0.365 N 
ATOM     45  H06 TRP A  63     -18.591   8.181   2.858  1.00 37.98     0.165 HD
ATOM     46  CD1 TRP A  63     -20.468   7.813   3.787  1.00 38.16     0.096 A 
ENDBRANCH  36  37
ENDBRANCH  35  36
END_RES TRP A  63
BEGIN_RES LEU A  66
REMARK  2 active torsions:
REMARK  status: ('A' for Active; 'I' for Inactive)
REMARK   16  A    between atoms: CA   and  CB  
REMARK   17  A    between atoms: CB   and  CG  
ROOT
ATOM     47  CA  LEU A  66     -20.004   6.489  11.120  1.00 10.90     0.177 C 
ENDROOT
BRANCH  47  48
ATOM     48  CB  LEU A  66     -19.626   5.453  10.069  1.00 13.57     0.038 C 
BRANCH  48  49
ATOM     49  CG  LEU A  66     -19.192   4.076  10.569  1.00  8.73    -0.020 C 
ATOM     50  CD1 LEU A  66     -17.908   3.650   9.906  1.00 14.23     0.009 C 
ATOM     51  CD2 LEU A  66     -19.004   4.147  12.063  1.00  1.92     0.009 C 
ENDBRANCH  48  49
ENDBRANCH  47  48
END_RES LEU A  66
BEGIN_RES PHE A  70
REMARK  2 active torsions:
REMARK  status: ('A' for Active; 'I' for Inactive)
REMARK   18  A    between atoms: CA   and  CB  
REMARK   19  A    between atoms: CB   and  CG  
ROOT
ATOM     52  CA  PHE A  70     -14.974   9.434  13.165  1.00  8.78     0.180 C 
ENDROOT
BRANCH  52  53
ATOM     53  CB  PHE A  70     -14.707   9.132  11.681  1.00  6.33     0.073 C 
BRANCH  53  54
ATOM     54  CG  PHE A  70     -13.972   7.839  11.456  1.00  3.42    -0.056 A 
ATOM     55  CD1 PHE A  70     -13.466   7.109  12.522  1.00 13.88     0.007 A 
ATOM     56  CE1 PHE A  70     -12.739   5.926  12.302  1.00 12.71     0.001 A 
ATOM     57  CZ  PHE A  70     -12.518   5.469  11.002  1.00  4.21     0.000 A 
ATOM     58  CE2 PHE A  70     -13.020   6.186   9.932  1.00  2.83     0.001 A 
ATOM     59  CD2 PHE A  70     -13.745   7.368  10.163  1.00  1.00     0.007 A 
ENDBRANCH  53  54
ENDBRANCH  52  53
END_RES PHE A  70
BEGIN_RES TYR A  73
REMARK  3 active torsions:
REMARK  status: ('A' for Active; 'I' for Inactive)
REMARK   20  A    between atoms: CA   and  CB  
REMARK   21  A    between atoms: CB   and  CG  
REMARK   22  A    between atoms: CZ   and  OH  
ROOT
ATOM     60  CA  TYR A  73     -13.212  10.166  17.260  1.00 12.17     0.180 C 
ENDROOT
BRANCH  60  61
ATOM     61  CB  TYR A  73     -13.301   8.846  16.517  1.00 12.84     0.073 C 
BRANCH  61  62
ATOM     62  CG  TYR A  73     -13.848   7.742  17.352  1.00 15.89    -0.056 A 
ATOM     63  CD1 TYR A  73     -14.187   7.949  18.671  1.00 16.00     0.010 A 
ATOM     64  CE1 TYR A  73     -14.670   6.909  19.464  1.00 13.55     0.037 A 
ATOM     65  CZ  TYR A  73     -14.810   5.649  18.917  1.00 18.13     0.065 A 
ATOM     66  CE2 TYR A  73     -14.480   5.416  17.602  1.00 15.89     0.037 A 
ATOM     67  CD2 TYR A  73     -14.001   6.464  16.826  1.00 21.86     0.010 A 
BRANCH  65  68
ATOM     68  OH  TYR A  73     -15.290   4.611  19.678  1.00 12.12    -0.361 OA
ATOM     69  H08 TYR A  73     -16.198   4.793  19.932  1.00 12.12     0.217 HD
ENDBRANCH  65  68
ENDBRANCH  61  62
ENDBRANCH  60  61
END_RES TYR A  73
BEGIN_RES PHE A  77
REMARK  2 active torsions:
REMARK  status: ('A' for Active; 'I' for Inactive)
REMARK   23  A    between atoms: CA   and  CB  
REMARK   24  A    between atoms: CB   and  CG  
ROOT
ATOM     70  CA  PHE A  77      -8.400  10.581  20.110  1.00 17.17     0.180 C 
ENDROOT
BRANCH  70  71
ATOM     71  CB  PHE A  77      -8.228   9.750  18.851  1.00 10.44     0.073 C 
BRANCH  71  72
ATOM     72  CG  PHE A  77      -9.179   8.599  18.754  1.00  6.07    -0.056 A 
ATOM     73  CD2 PHE A  77      -9.900   8.192  19.853  1.00  9.61     0.007 A 
ATOM     74  CE2 PHE A  77     -10.787   7.125  19.772  1.00  1.00     0.001 A 
ATOM     75  CZ  PHE A  77     -10.957   6.458  18.571  1.00  1.92     0.000 A 
ATOM     76  CE1 PHE A  77     -10.246   6.854  17.461  1.00  9.25     0.001 A 
ATOM     77  CD1 PHE A  77      -9.357   7.925  17.557  1.00  9.63     0.007 A 
ENDBRANCH  71  72
ENDBRANCH  70  71
END_RES PHE A  77
BEGIN_RES LEU A  96
REMARK  2 active torsions:
REMARK  status: ('A' for Active; 'I' for Inactive)
REMARK   25  A    between atoms: CA   and  CB  
REMARK   26  A    between atoms: CB   and  CG  
ROOT
ATOM     78  CA  LEU A  96       0.717   6.481  17.359  1.00 16.08     0.177 C 
ENDROOT
BRANCH  78  79
ATOM     79  CB  LEU A  96      -0.370   7.101  18.230  1.00 18.83     0.038 C 
BRANCH  79  80
ATOM     80  CG  LEU A  96      -0.158   6.922  19.733  1.00 19.03    -0.020 C 
ATOM     81  CD1 LEU A  96      -1.424   7.321  20.455  1.00 28.17     0.009 C 
ATOM     82  CD2 LEU A  96       0.141   5.476  20.055  1.00 22.01     0.009 C 
ENDBRANCH  79  80
ENDBRANCH  78  79
END_RES LEU A  96
BEGIN_RES VAL A  98
REMARK  1 active torsions:
REMARK  status: ('A' for Active; 'I' for Inactive)
REMARK   27  A    between atoms: CA   and  CB  
ROOT
ATOM     83  CA  VAL A  98      -3.928   2.082  14.897  1.00 19.83     0.180 C 
ENDROOT
BRANCH  83  84
ATOM     84  CB  VAL A  98      -5.203   2.807  15.281  1.00 17.87     0.009 C 
ATOM     85  CG2 VAL A  98      -5.132   3.251  16.719  1.00 29.90     0.012 C 
ATOM     86  CG1 VAL A  98      -6.391   1.895  15.057  1.00 14.79     0.012 C 
ENDBRANCH  83  84
END_RES VAL A  98
BEGIN_RES ASN A 112
REMARK  2 active torsions:
REMARK  status: ('A' for Active; 'I' for Inactive)
REMARK   28  A    between atoms: CA   and  CB  
REMARK   29  A    between atoms: CB   and  CG  
REMARK       I    between atoms: CG   and  ND2 
ROOT
ATOM     87  CA  ASN A 112     -11.790  -8.793  14.069  1.00 37.70     0.185 C 
ENDROOT
BRANCH  87  88
ATOM     88  CB  ASN A 112     -12.992  -7.945  14.465  1.00 26.24     0.137 C 
BRANCH  88  89
ATOM     89  CG  ASN A 112     -13.823  -8.571  15.562  1.00 21.77     0.217 C 
ATOM     90  ND2 ASN A 112     -14.977  -9.120  15.185  1.00  9.31    -0.370 N 
ATOM     91  H04 ASN A 112     -15.579  -9.553  15.872  1.00  9.31     0.159 HD
ATOM     92  H05 ASN A 112     -15.250  -9.104  14.213  1.00  9.31     0.159 HD
ATOM     93  OD1 ASN A 112     -13.438  -8.558  16.738  1.00 21.61    -0.274 OA
ENDBRANCH  88  89
ENDBRANCH  87  88
END_RES ASN A 112
BEGIN_RES PHE A 114
REMARK  2 active torsions:
REMARK  status: ('A' for Active; 'I' for Inactive)
REMARK   30  A    between atoms: CA   and  CB  
REMARK   31  A    between atoms: CB   and  CG  
ROOT
ATOM     94  CA  PHE A 114      -7.754  -3.619  17.012  1.00 26.06     0.180 C 
ENDROOT
BRANCH  94  95
ATOM     95  CB  PHE A 114      -8.890  -3.080  17.867  1.00 19.95     0.073 C 
BRANCH  95  96
ATOM     96  CG  PHE A 114      -8.640  -1.700  18.382  1.00 17.65    -0.056 A 
ATOM     97  CD1 PHE A 114      -8.103  -0.717  17.555  1.00 13.01     0.007 A 
ATOM     98  CE1 PHE A 114      -7.843   0.558  18.041  1.00  6.74     0.001 A 
ATOM     99  CZ  PHE A 114      -8.122   0.868  19.369  1.00  6.27     0.000 A 
ATOM    100  CE2 PHE A 114      -8.658  -0.102  20.201  1.00 17.36     0.001 A 
ATOM    101  CD2 PHE A 114      -8.916  -1.384  19.705  1.00 18.39     0.007 A 
ENDBRANCH  95  96
ENDBRANCH  94  95
END_RES PHE A 114
BEGIN_RES VAL A 116
REMARK  1 active torsions:
REMARK  status: ('A' for Active; 'I' for Inactive)
REMARK   32  A    between atoms: CA   and  CB  
ROOT
ATOM    102  CA  VAL A 116      -2.467   0.283  18.565  1.00 13.48     0.180 C 
ENDROOT
BRANCH 102 103
ATOM    103  CB  VAL A 116      -3.101   1.238  19.599  1.00 20.86     0.009 C 
ATOM    104  CG1 VAL A 116      -2.704   2.681  19.274  1.00 25.01     0.012 C 
ATOM    105  CG2 VAL A 116      -4.602   1.070  19.638  1.00 25.34     0.012 C 
ENDBRANCH 102 103
END_RES VAL A 116
BEGIN_RES ILE A 123
REMARK  2 active torsions:
REMARK  status: ('A' for Active; 'I' for Inactive)
REMARK   33  A    between atoms: CA   and  CB  
REMARK   34  A    between atoms: CB   and  CG1 
ROOT
ATOM    106  CA  ILE A 123       1.557  -1.626  23.222  1.00 15.07     0.180 C 
ENDROOT
BRANCH 106 107
ATOM    107  CB  ILE A 123       1.697  -0.112  23.461  1.00 14.41     0.013 C 
ATOM    108  CG2 ILE A 123       3.112   0.212  23.907  1.00 18.35     0.012 C 
BRANCH 107 109
ATOM    109  CG1 ILE A 123       1.355   0.659  22.189  1.00 15.23     0.002 C 
ATOM    110  CD1 ILE A 123       0.225   1.645  22.364  1.00 14.67     0.005 C 
ENDBRANCH 107 109
ENDBRANCH 106 107
END_RES ILE A 123
BEGIN_RES LEU A 124
REMARK  2 active torsions:
REMARK  status: ('A' for Active; 'I' for Inactive)
REMARK   35  A    between atoms: CA   and  CB  
REMARK   36  A    between atoms: CB   and  CG  
ROOT
ATOM    111  CA  LEU A 124      -2.057  -2.686  23.524  1.00 11.86     0.177 C 
ENDROOT
BRANCH 111 112
ATOM    112  CB  LEU A 124      -2.698  -1.652  24.429  1.00 14.60     0.038 C 
BRANCH 112 113
ATOM    113  CG  LEU A 124      -2.613  -0.250  23.845  1.00 16.19    -0.020 C 
ATOM    114  CD1 LEU A 124      -4.006   0.166  23.334  1.00 22.07     0.009 C 
ATOM    115  CD2 LEU A 124      -2.092   0.701  24.893  1.00  9.12     0.009 C 
ENDBRANCH 112 113
ENDBRANCH 111 112
END_RES LEU A 124
BEGIN_RES PHE A 126
REMARK  2 active torsions:
REMARK  status: ('A' for Active; 'I' for Inactive)
REMARK   37  A    between atoms: CA   and  CB  
REMARK   38  A    between atoms: CB   and  CG  
ROOT
ATOM    116  CA  PHE A 126      -8.784  -4.792  22.233  1.00 23.15     0.180 C 
ENDROOT
BRANCH 116 117
ATOM    117  CB  PHE A 126      -9.823  -4.011  21.461  1.00 20.65     0.073 C 
BRANCH 117 118
ATOM    118  CG  PHE A 126     -10.951  -3.546  22.296  1.00 23.65    -0.056 A 
ATOM    119  CD2 PHE A 126     -10.765  -2.555  23.244  1.00 36.63     0.007 A 
ATOM    120  CE2 PHE A 126     -11.836  -2.114  24.034  1.00 36.27     0.001 A 
ATOM    121  CZ  PHE A 126     -13.094  -2.672  23.868  1.00 18.06     0.000 A 
ATOM    122  CE1 PHE A 126     -13.284  -3.659  22.921  1.00  5.50     0.001 A 
ATOM    123  CD1 PHE A 126     -12.214  -4.090  22.138  1.00 15.29     0.007 A 
ENDBRANCH 117 118
ENDBRANCH 116 117
END_RES PHE A 126
BEGIN_RES TRP A 131
REMARK  2 active torsions:
REMARK  status: ('A' for Active; 'I' for Inactive)
REMARK   39  A    between atoms: CA   and  CB  
REMARK   40  A    between atoms: CB   and  CG  
ROOT
ATOM    124  CA  TRP A 131      -8.096  -3.335  26.542  1.00 14.52     0.181 C 
ENDROOT
BRANCH 124 125
ATOM    125  CB  TRP A 131      -7.651  -1.877  26.607  1.00 13.06     0.075 C 
BRANCH 125 126
ATOM    126  CG  TRP A 131      -8.040  -1.054  25.399  1.00 16.97    -0.028 A 
ATOM    127  CD2 TRP A 131      -9.124  -0.126  25.313  1.00 11.34    -0.002 A 
ATOM    128  CE2 TRP A 131      -9.116   0.416  24.013  1.00  5.87     0.042 A 
ATOM    129  CE3 TRP A 131     -10.105   0.299  26.216  1.00  3.80     0.014 A 
ATOM    130  CZ2 TRP A 131     -10.049   1.365  23.593  1.00  1.35     0.030 A 
ATOM    131  NE1 TRP A 131      -8.075  -0.157  23.336  1.00 13.90    -0.365 N 
ATOM    132  CH2 TRP A 131     -10.999   1.765  24.500  1.00  1.00     0.002 A 
ATOM    133  CZ3 TRP A 131     -11.034   1.238  25.805  1.00  1.00     0.001 A 
ATOM    134  CD1 TRP A 131      -7.432  -1.039  24.173  1.00 17.22     0.096 A 
ATOM    135  H07 TRP A 131      -7.819   0.036  22.378  1.00 13.90     0.165 HD
ENDBRANCH 125 126
ENDBRANCH 124 125
END_RES TRP A 131
BEGIN_RES LEU A 148
REMARK  2 active torsions:
REMARK  status: ('A' for Active; 'I' for Inactive)
REMARK   41  A    between atoms: CA   and  CB  
REMARK   42  A    between atoms: CB   and  CG  
ROOT
ATOM    136  CA  LEU A 148      -9.018   3.259  29.295  1.00 16.99     0.177 C 
ENDROOT
BRANCH 136 137
ATOM    137  CB  LEU A 148      -8.166   2.574  28.236  1.00  6.39     0.038 C 
BRANCH 137 138
ATOM    138  CG  LEU A 148      -8.008   3.171  26.853  1.00  1.00    -0.020 C 
ATOM    139  CD2 LEU A 148      -6.587   3.603  26.631  1.00  1.00     0.009 C 
ATOM    140  CD1 LEU A 148      -8.950   4.355  26.735  1.00  2.71     0.009 C 
ENDBRANCH 137 138
ENDBRANCH 136 137
END_RES LEU A 148
BEGIN_RES THR A 154
REMARK  2 active torsions:
REMARK  status: ('A' for Active; 'I' for Inactive)
REMARK   43  A    between atoms: CA   and  CB  
REMARK   44  A    between atoms: CB   and  OG1 
ROOT
ATOM    141  CA  THR A 154     -15.990   3.959  24.426  1.00 20.45     0.205 C 
ENDROOT
BRANCH 141 142
ATOM    142  CB  THR A 154     -14.777   4.829  24.694  1.00 16.79     0.146 C 
ATOM    143  CG2 THR A 154     -13.629   4.419  23.791  1.00 20.24     0.042 C 
BRANCH 142 144
ATOM    144  OG1 THR A 154     -15.116   6.195  24.421  1.00 18.84    -0.393 OA
ATOM    145  H06 THR A 154     -14.934   6.392  23.500  1.00 18.84     0.210 HD
ENDBRANCH 142 144
ENDBRANCH 141 142
END_RES THR A 154
BEGIN_RES VAL A 158
REMARK  1 active torsions:
REMARK  status: ('A' for Active; 'I' for Inactive)
REMARK   45  A    between atoms: CA   and  CB  
ROOT
ATOM    146  CA  VAL A 158     -15.487  -0.189  19.892  1.00 15.49     0.180 C 
ENDROOT
BRANCH 146 147
ATOM    147  CB  VAL A 158     -14.291  -0.273  20.822  1.00  6.52     0.009 C 
ATOM    148  CG1 VAL A 158     -13.242  -1.209  20.268  1.00  1.00     0.012 C 
ATOM    149  CG2 VAL A 158     -13.729   1.103  21.007  1.00  5.99     0.012 C 
ENDBRANCH 146 147
END_RES VAL A 158
BEGIN_RES LEU A 161
REMARK  2 active torsions:
REMARK  status: ('A' for Active; 'I' for Inactive)
REMARK   46  A    between atoms: CA   and  CB  
REMARK   47  A    between atoms: CB   and  CG  
ROOT
ATOM    150  CA  LEU A 161     -18.031  -1.858  15.935  1.00 13.31     0.177 C 
ENDROOT
BRANCH 150 151
ATOM    151  CB  LEU A 161     -17.046  -0.706  16.001  1.00 14.13     0.038 C 
BRANCH 151 152
ATOM    152  CG  LEU A 161     -17.464   0.580  15.299  1.00 19.39    -0.020 C 
ATOM    153  CD2 LEU A 161     -16.859   1.775  15.996  1.00 27.75     0.009 C 
ATOM    154  CD1 LEU A 161     -18.965   0.678  15.317  1.00 18.59     0.009 C 
ENDBRANCH 151 152
ENDBRANCH 150 151
END_RES LEU A 161
BEGIN_RES GLN A 168
REMARK  3 active torsions:
REMARK  status: ('A' for Active; 'I' for Inactive)
REMARK   48  A    between atoms: CA   and  CB  
REMARK   49  A    between atoms: CB   and  CG  
REMARK   50  A    between atoms: CG   and  CD  
REMARK       I    between atoms: CD   and  NE2 
ROOT
ATOM    155  CA  GLN A 168     -22.035  -6.020   8.155  1.00 30.94     0.177 C 
ENDROOT
BRANCH 155 156
ATOM    156  CB  GLN A 168     -23.054  -5.218   8.946  1.00 41.76     0.044 C 
BRANCH 156 157
ATOM    157  CG  GLN A 168     -24.452  -5.773   8.906  1.00 61.20     0.105 C 
BRANCH 157 158
ATOM    158  CD  GLN A 168     -24.577  -7.051   9.712  1.00 75.49     0.215 C 
ATOM    159  NE2 GLN A 168     -25.070  -8.110   9.067  1.00 85.00    -0.370 N 
ATOM    160  H06 GLN A 168     -25.179  -8.990   9.551  1.00 85.00     0.159 HD
ATOM    161  H07 GLN A 168     -25.333  -8.031   8.094  1.00 85.00     0.159 HD
ATOM    162  OE1 GLN A 168     -24.241  -7.090  10.904  1.00 73.64    -0.274 OA
ENDBRANCH 157 158
ENDBRANCH 156 157
ENDBRANCH 155 156
END_RES GLN A 168
ENDMDL
MODEL 7
REMARK VINA RESULT:     -11.5      1.861      2.960
REMARK  Name = human_CD1d_CHAPS_pred.rank_0
REMARK  12 active torsions:
REMARK  status: ('A' for Active; 'I' for Inactive)
REMARK    1  A    between atoms: N_2  and  C_14
REMARK    2  A    between atoms: S_4  and  C_23
REMARK    3  A    between atoms: C_5  and  C_8
REMARK    4  A    between atoms: C_5  and  C_24
REMARK    5  A    between atoms: N_6  and  C_18
REMARK    6  A    between atoms: N_6  and  C_21
REMARK    7  A    between atoms: C_8  and  C_10
REMARK    8  A    between atoms: C_10  and  C_12
REMARK    9  A    between atoms: C_14  and  C_16
REMARK   10  A    between atoms: C_16  and  C_18
REMARK   11  A    between atoms: C_21  and  C_22
REMARK   12  A    between atoms: C_22  and  C_23
REMARK                            x       y       z     vdW  Elec       q    Type
REMARK                         _______ _______ _______ _____ _____    ______ ____
ROOT
ATOM      1  O   UNL     1      -9.877   8.492  15.602  0.00  0.00    +0.000 OA
ATOM      2  O   UNL     1     -11.802   3.628  17.091  0.00  0.00    +0.000 OA
ATOM      3  O   UNL     1     -14.622   2.601  14.139  0.00  0.00    +0.000 OA
ATOM      4  C   UNL     1     -13.936  -0.242  14.544  0.00  0.00    +0.000 C 
ATOM      5  C   UNL     1     -13.081  -0.908  15.653  0.00  0.00    +0.000 C 
ATOM      6  C   UNL     1     -11.976   0.071  16.005  0.00  0.00    +0.000 C 
ATOM      7  C   UNL     1     -12.355   1.353  15.284  0.00  0.00    +0.000 C 
ATOM      8  C   UNL     1     -12.963   0.840  13.979  0.00  0.00    +0.000 C 
ATOM      9  C   UNL     1     -13.584   2.059  13.298  0.00  0.00    +0.000 C 
ATOM     10  C   UNL     1     -12.496   3.160  13.005  0.00  0.00    +0.000 C 
ATOM     11  C   UNL     1     -11.686   3.581  14.239  0.00  0.00    +0.000 C 
ATOM     12  C   UNL     1     -11.230   2.387  15.076  0.00  0.00    +0.000 C 
ATOM     13  C   UNL     1     -10.764   2.905  16.475  0.00  0.00    +0.000 C 
ATOM     14  C   UNL     1      -9.497   3.796  16.207  0.00  0.00    +0.000 C 
ATOM     15  C   UNL     1      -9.590   4.816  15.131  0.00  0.00    +0.000 C 
ATOM     16  C   UNL     1     -10.480   4.531  13.890  0.00  0.00    +0.000 C 
ATOM     17  C   UNL     1     -11.035   5.814  13.204  0.00  0.00    +0.000 C 
ATOM     18  C   UNL     1     -11.057   7.085  14.049  0.00  0.00    +0.000 C 
ATOM     19  C   UNL     1      -9.837   7.221  14.911  0.00  0.00    +0.000 C 
ATOM     20  C   UNL     1      -9.892   6.105  15.885  0.00  0.00    +0.000 C 
ATOM     21  C   UNL     1      -9.561   3.943  12.917  0.00  0.00    +0.000 C 
ATOM     22  C   UNL     1     -11.979   0.167  13.031  0.00  0.00    +0.000 C 
ENDROOT
BRANCH   4  24
ATOM     23  C   UNL     1     -13.433  -1.905  12.706  0.00  0.00    +0.000 C 
ATOM     24  C   UNL     1     -14.502  -1.274  13.557  0.00  0.00    +0.000 C 
BRANCH  24  25
ATOM     25  C   UNL     1     -15.544  -0.544  12.636  0.00  0.00    +0.000 C 
BRANCH  25  26
ATOM     26  C   UNL     1     -15.256  -0.879  11.186  0.00  0.00    +0.000 C 
BRANCH  26  29
ATOM     27  N   UNL     1     -16.038   1.227  10.182  0.00  0.00    +0.000 NA
ATOM     28  O   UNL     1     -17.149  -0.680   9.721  0.00  0.00    +0.000 OA
ATOM     29  C   UNL     1     -16.257  -0.101  10.317  0.00  0.00    +0.000 C 
BRANCH  27  30
ATOM     30  C   UNL     1     -16.870   2.021   9.211  0.00  0.00    +0.000 C 
BRANCH  30  31
ATOM     31  C   UNL     1     -16.125   2.280   7.889  0.00  0.00    +0.000 C 
BRANCH  31  32
ATOM     32  C   UNL     1     -14.873   3.045   8.105  0.00  0.00    +0.000 C 
BRANCH  32  33
ATOM     33  N   UNL     1     -14.552   3.875   6.928  0.00  0.00    +0.000 N 
ATOM     34  C   UNL     1     -15.338   3.380   5.818  0.00  0.00    +0.000 C 
ATOM     35  C   UNL     1     -14.840   5.285   7.135  0.00  0.00    +0.000 C 
BRANCH  33  36
ATOM     36  C   UNL     1     -13.084   3.708   6.609  0.00  0.00    +0.000 C 
BRANCH  36  37
ATOM     37  C   UNL     1     -12.196   4.932   7.029  0.00  0.00    +0.000 C 
BRANCH  37  38
ATOM     38  C   UNL     1     -10.750   4.599   6.806  0.00  0.00    +0.000 C 
BRANCH  38  39
ATOM     39  S   UNL     1      -9.891   4.896   8.252  0.00  0.00    +0.000 S 
ATOM     40  O   UNL     1      -9.358   6.246   8.207  0.00  0.00    +0.000 OA
ATOM     41  O   UNL     1      -8.808   3.916   8.442  0.00  0.00    +0.000 OA
ATOM     42  O   UNL     1     -10.834   4.747   9.374  0.00  0.00    +0.000 OA
ENDBRANCH  38  39
ENDBRANCH  37  38
ENDBRANCH  36  37
ENDBRANCH  33  36
ENDBRANCH  32  33
ENDBRANCH  31  32
ENDBRANCH  30  31
ENDBRANCH  27  30
ENDBRANCH  26  29
ENDBRANCH  25  26
ENDBRANCH  24  25
ENDBRANCH   4  24
TORSDOF 12
BEGIN_RES LEU A  10
REMARK  2 active torsions:
REMARK  status: ('A' for Active; 'I' for Inactive)
REMARK    1  A    between atoms: CA   and  CB  
REMARK    2  A    between atoms: CB   and  CG  
ROOT
ATOM      1  CA  LEU A  10     -10.775  -4.871   5.898  1.00 25.14     0.177 C 
ENDROOT
BRANCH   1   2
ATOM      2  CB  LEU A  10     -12.191  -4.387   6.226  1.00 17.87     0.038 C 
BRANCH   2   3
ATOM      3  CG  LEU A  10     -12.495  -2.961   5.763  1.00 24.95    -0.020 C 
ATOM      4  CD2 LEU A  10     -13.484  -2.347   6.696  1.00 26.38     0.009 C 
ATOM      5  CD1 LEU A  10     -13.027  -2.953   4.340  1.00 28.12     0.009 C 
ENDBRANCH   2   3
ENDBRANCH   1   2
END_RES LEU A  10
BEGIN_RES CYS A  12
REMARK  2 active torsions:
REMARK  status: ('A' for Active; 'I' for Inactive)
REMARK    3  A    between atoms: CA   and  CB  
REMARK    4  A    between atoms: CB   and  SG  
ROOT
ATOM      6  CA  CYS A  12      -8.555   0.470   8.750  1.00 23.16     0.185 C 
ENDROOT
BRANCH   6   7
ATOM      7  CB  CYS A  12      -9.828   0.763   9.555  1.00 20.43     0.105 C 
BRANCH   7   8
ATOM      8  SG  CYS A  12     -11.337   1.062   8.584  1.00 24.64    -0.180 SA
ATOM      9  H04 CYS A  12     -12.299   0.219   8.983  1.00 24.64     0.101 HD
ENDBRANCH   7   8
ENDBRANCH   6   7
END_RES CYS A  12
BEGIN_RES GLN A  14
REMARK  3 active torsions:
REMARK  status: ('A' for Active; 'I' for Inactive)
REMARK    5  A    between atoms: CA   and  CB  
REMARK    6  A    between atoms: CB   and  CG  
REMARK    7  A    between atoms: CG   and  CD  
REMARK       I    between atoms: CD   and  NE2 
ROOT
ATOM     10  CA  GLN A  14      -4.645   5.402  11.377  1.00 10.43     0.177 C 
ENDROOT
BRANCH  10  11
ATOM     11  CB  GLN A  14      -5.541   5.549  12.608  1.00 14.45     0.044 C 
BRANCH  11  12
ATOM     12  CG  GLN A  14      -6.502   6.714  12.536  1.00 13.74     0.105 C 
BRANCH  12  13
ATOM     13  CD  GLN A  14      -5.929   7.972  13.144  1.00 16.29     0.215 C 
ATOM     14  NE2 GLN A  14      -6.300   8.249  14.375  1.00  8.57    -0.370 N 
ATOM     15  H06 GLN A  14      -5.948   9.077  14.834  1.00  8.57     0.159 HD
ATOM     16  H07 GLN A  14      -6.935   7.634  14.862  1.00  8.57     0.159 HD
ATOM     17  OE1 GLN A  14      -5.162   8.683  12.515  1.00 23.55    -0.274 OA
ENDBRANCH  12  13
ENDBRANCH  11  12
ENDBRANCH  10  11
END_RES GLN A  14
BEGIN_RES SER A  16
REMARK  2 active torsions:
REMARK  status: ('A' for Active; 'I' for Inactive)
REMARK    8  A    between atoms: CA   and  CB  
REMARK    9  A    between atoms: CB   and  OG  
ROOT
ATOM     18  CA  SER A  16      -1.305  10.019  14.282  1.00  2.34     0.200 C 
ENDROOT
BRANCH  18  19
ATOM     19  CB  SER A  16      -2.242   9.935  15.479  1.00  3.12     0.199 C 
BRANCH  19  20
ATOM     20  OG  SER A  16      -3.476   9.351  15.099  1.00  1.00    -0.398 OA
ATOM     21  H04 SER A  16      -3.372   8.903  14.256  1.00  1.00     0.209 HD
ENDBRANCH  19  20
ENDBRANCH  18  19
END_RES SER A  16
BEGIN_RES LEU A  32
REMARK  2 active torsions:
REMARK  status: ('A' for Active; 'I' for Inactive)
REMARK   10  A    between atoms: CA   and  CB  
REMARK   11  A    between atoms: CB   and  CG  
ROOT
ATOM     22  CA  LEU A  32     -10.272  -4.106   1.587  1.00 16.16     0.177 C 
ENDROOT
BRANCH  22  23
ATOM     23  CB  LEU A  32     -11.613  -3.858   0.880  1.00 12.35     0.038 C 
BRANCH  23  24
ATOM     24  CG  LEU A  32     -12.680  -4.892   1.293  1.00  9.77    -0.020 C 
ATOM     25  CD1 LEU A  32     -14.017  -4.539   0.685  1.00  4.35     0.009 C 
ATOM     26  CD2 LEU A  32     -12.278  -6.279   0.866  1.00 10.60     0.009 C 
ENDBRANCH  23  24
ENDBRANCH  22  23
END_RES LEU A  32
BEGIN_RES HIS A  38
REMARK  2 active torsions:
REMARK  status: ('A' for Active; 'I' for Inactive)
REMARK   12  A    between atoms: CA   and  CB  
REMARK   13  A    between atoms: CB   and  CG  
ROOT
ATOM     27  CA  HIS A  38     -10.959   4.941   1.621  1.00 16.94     0.182 C 
ENDROOT
BRANCH  27  28
ATOM     28  CB  HIS A  38     -11.810   4.840   2.881  1.00 15.47     0.095 C 
BRANCH  28  29
ATOM     29  CG  HIS A  38     -12.972   3.909   2.752  1.00 18.62     0.053 A 
ATOM     30  CD2 HIS A  38     -14.167   4.060   2.131  1.00 15.06     0.116 A 
ATOM     31  NE2 HIS A  38     -14.854   2.885   2.292  1.00 18.12    -0.359 N 
ATOM     32  CE1 HIS A  38     -14.112   2.043   2.986  1.00 14.78     0.207 A 
ATOM     33  H06 HIS A  38     -15.781   2.694   1.937  1.00 18.12     0.166 HD
ATOM     34  ND1 HIS A  38     -12.972   2.636   3.277  1.00 16.58    -0.247 NA
ENDBRANCH  28  29
ENDBRANCH  27  28
END_RES HIS A  38
BEGIN_RES TRP A  63
REMARK  2 active torsions:
REMARK  status: ('A' for Active; 'I' for Inactive)
REMARK   14  A    between atoms: CA   and  CB  
REMARK   15  A    between atoms: CB   and  CG  
ROOT
ATOM     35  CA  TRP A  63     -22.437   6.257   6.543  1.00 27.04     0.181 C 
ENDROOT
BRANCH  35  36
ATOM     36  CB  TRP A  63     -22.360   6.642   5.068  1.00 31.37     0.075 C 
BRANCH  36  37
ATOM     37  CG  TRP A  63     -20.958   6.902   4.558  1.00 34.37    -0.028 A 
ATOM     38  CD2 TRP A  63     -19.900   5.947   4.404  1.00 33.79    -0.002 A 
ATOM     39  CE3 TRP A  63     -19.768   4.586   4.692  1.00 32.99     0.014 A 
ATOM     40  CE2 TRP A  63     -18.803   6.628   3.831  1.00 35.84     0.042 A 
ATOM     41  CZ3 TRP A  63     -18.566   3.956   4.404  1.00 32.93     0.001 A 
ATOM     42  CH2 TRP A  63     -17.494   4.661   3.835  1.00 39.24     0.002 A 
ATOM     43  CZ2 TRP A  63     -17.594   5.995   3.541  1.00 37.99     0.030 A 
ATOM     44  NE1 TRP A  63     -19.182   7.930   3.650  1.00 37.98    -0.365 N 
ATOM     45  H06 TRP A  63     -18.605   8.659   3.256  1.00 37.98     0.165 HD
ATOM     46  CD1 TRP A  63     -20.474   8.083   4.090  1.00 38.16     0.096 A 
ENDBRANCH  36  37
ENDBRANCH  35  36
END_RES TRP A  63
BEGIN_RES LEU A  66
REMARK  2 active torsions:
REMARK  status: ('A' for Active; 'I' for Inactive)
REMARK   16  A    between atoms: CA   and  CB  
REMARK   17  A    between atoms: CB   and  CG  
ROOT
ATOM     47  CA  LEU A  66     -20.004   6.489  11.120  1.00 10.90     0.177 C 
ENDROOT
BRANCH  47  48
ATOM     48  CB  LEU A  66     -19.626   5.453  10.069  1.00 13.57     0.038 C 
BRANCH  48  49
ATOM     49  CG  LEU A  66     -19.318   4.039  10.560  1.00  8.73    -0.020 C 
ATOM     50  CD1 LEU A  66     -18.969   4.050  12.025  1.00 14.23     0.009 C 
ATOM     51  CD2 LEU A  66     -20.531   3.176  10.323  1.00  1.92     0.009 C 
ENDBRANCH  48  49
ENDBRANCH  47  48
END_RES LEU A  66
BEGIN_RES PHE A  70
REMARK  2 active torsions:
REMARK  status: ('A' for Active; 'I' for Inactive)
REMARK   18  A    between atoms: CA   and  CB  
REMARK   19  A    between atoms: CB   and  CG  
ROOT
ATOM     52  CA  PHE A  70     -14.974   9.434  13.165  1.00  8.78     0.180 C 
ENDROOT
BRANCH  52  53
ATOM     53  CB  PHE A  70     -14.707   9.132  11.681  1.00  6.33     0.073 C 
BRANCH  53  54
ATOM     54  CG  PHE A  70     -14.513   7.668  11.394  1.00  3.42    -0.056 A 
ATOM     55  CD1 PHE A  70     -13.527   7.235  10.520  1.00 13.88     0.007 A 
ATOM     56  CE1 PHE A  70     -13.382   5.869  10.220  1.00 12.71     0.001 A 
ATOM     57  CZ  PHE A  70     -14.232   4.928  10.802  1.00  4.21     0.000 A 
ATOM     58  CE2 PHE A  70     -15.217   5.348  11.677  1.00  2.83     0.001 A 
ATOM     59  CD2 PHE A  70     -15.354   6.715  11.970  1.00  1.00     0.007 A 
ENDBRANCH  53  54
ENDBRANCH  52  53
END_RES PHE A  70
BEGIN_RES TYR A  73
REMARK  3 active torsions:
REMARK  status: ('A' for Active; 'I' for Inactive)
REMARK   20  A    between atoms: CA   and  CB  
REMARK   21  A    between atoms: CB   and  CG  
REMARK   22  A    between atoms: CZ   and  OH  
ROOT
ATOM     60  CA  TYR A  73     -13.212  10.166  17.260  1.00 12.17     0.180 C 
ENDROOT
BRANCH  60  61
ATOM     61  CB  TYR A  73     -13.301   8.846  16.517  1.00 12.84     0.073 C 
BRANCH  61  62
ATOM     62  CG  TYR A  73     -13.263   7.664  17.421  1.00 15.89    -0.056 A 
ATOM     63  CD1 TYR A  73     -14.296   6.753  17.444  1.00 16.00     0.010 A 
ATOM     64  CE1 TYR A  73     -14.276   5.662  18.312  1.00 13.55     0.037 A 
ATOM     65  CZ  TYR A  73     -13.202   5.493  19.164  1.00 18.13     0.065 A 
ATOM     66  CE2 TYR A  73     -12.158   6.387  19.159  1.00 15.89     0.037 A 
ATOM     67  CD2 TYR A  73     -12.193   7.469  18.287  1.00 21.86     0.010 A 
BRANCH  65  68
ATOM     68  OH  TYR A  73     -13.160   4.422  20.023  1.00 12.12    -0.361 OA
ATOM     69  H08 TYR A  73     -13.807   4.545  20.721  1.00 12.12     0.217 HD
ENDBRANCH  65  68
ENDBRANCH  61  62
ENDBRANCH  60  61
END_RES TYR A  73
BEGIN_RES PHE A  77
REMARK  2 active torsions:
REMARK  status: ('A' for Active; 'I' for Inactive)
REMARK   23  A    between atoms: CA   and  CB  
REMARK   24  A    between atoms: CB   and  CG  
ROOT
ATOM     70  CA  PHE A  77      -8.400  10.581  20.110  1.00 17.17     0.180 C 
ENDROOT
BRANCH  70  71
ATOM     71  CB  PHE A  77      -8.228   9.750  18.851  1.00 10.44     0.073 C 
BRANCH  71  72
ATOM     72  CG  PHE A  77      -8.131   8.279  19.108  1.00  6.07    -0.056 A 
ATOM     73  CD2 PHE A  77      -7.422   7.465  18.254  1.00  9.61     0.007 A 
ATOM     74  CE2 PHE A  77      -7.326   6.098  18.486  1.00  1.00     0.001 A 
ATOM     75  CZ  PHE A  77      -7.945   5.539  19.591  1.00  1.92     0.000 A 
ATOM     76  CE1 PHE A  77      -8.656   6.339  20.456  1.00  9.25     0.001 A 
ATOM     77  CD1 PHE A  77      -8.747   7.709  20.210  1.00  9.63     0.007 A 
ENDBRANCH  71  72
ENDBRANCH  70  71
END_RES PHE A  77
BEGIN_RES LEU A  96
REMARK  2 active torsions:
REMARK  status: ('A' for Active; 'I' for Inactive)
REMARK   25  A    between atoms: CA   and  CB  
REMARK   26  A    between atoms: CB   and  CG  
ROOT
ATOM     78  CA  LEU A  96       0.717   6.481  17.359  1.00 16.08     0.177 C 
ENDROOT
BRANCH  78  79
ATOM     79  CB  LEU A  96      -0.370   7.101  18.230  1.00 18.83     0.038 C 
BRANCH  79  80
ATOM     80  CG  LEU A  96      -0.158   6.922  19.733  1.00 19.03    -0.020 C 
ATOM     81  CD1 LEU A  96       0.457   5.565  19.981  1.00 28.17     0.009 C 
ATOM     82  CD2 LEU A  96       0.784   7.979  20.262  1.00 22.01     0.009 C 
ENDBRANCH  79  80
ENDBRANCH  78  79
END_RES LEU A  96
BEGIN_RES VAL A  98
REMARK  1 active torsions:
REMARK  status: ('A' for Active; 'I' for Inactive)
REMARK   27  A    between atoms: CA   and  CB  
ROOT
ATOM     83  CA  VAL A  98      -3.928   2.082  14.897  1.00 19.83     0.180 C 
ENDROOT
BRANCH  83  84
ATOM     84  CB  VAL A  98      -5.203   2.807  15.281  1.00 17.87     0.009 C 
ATOM     85  CG2 VAL A  98      -4.932   4.281  15.438  1.00 29.90     0.012 C 
ATOM     86  CG1 VAL A  98      -5.752   2.221  16.565  1.00 14.79     0.012 C 
ENDBRANCH  83  84
END_RES VAL A  98
BEGIN_RES ASN A 112
REMARK  2 active torsions:
REMARK  status: ('A' for Active; 'I' for Inactive)
REMARK   28  A    between atoms: CA   and  CB  
REMARK   29  A    between atoms: CB   and  CG  
REMARK       I    between atoms: CG   and  ND2 
ROOT
ATOM     87  CA  ASN A 112     -11.790  -8.793  14.069  1.00 37.70     0.185 C 
ENDROOT
BRANCH  87  88
ATOM     88  CB  ASN A 112     -12.992  -7.945  14.465  1.00 26.24     0.137 C 
BRANCH  88  89
ATOM     89  CG  ASN A 112     -13.827  -8.574  15.557  1.00 21.77     0.217 C 
ATOM     90  ND2 ASN A 112     -14.983  -9.118  15.175  1.00  9.31    -0.370 N 
ATOM     91  H04 ASN A 112     -15.587  -9.552  15.859  1.00  9.31     0.159 HD
ATOM     92  H05 ASN A 112     -15.254  -9.095  14.202  1.00  9.31     0.159 HD
ATOM     93  OD1 ASN A 112     -13.444  -8.570  16.733  1.00 21.61    -0.274 OA
ENDBRANCH  88  89
ENDBRANCH  87  88
END_RES ASN A 112
BEGIN_RES PHE A 114
REMARK  2 active torsions:
REMARK  status: ('A' for Active; 'I' for Inactive)
REMARK   30  A    between atoms: CA   and  CB  
REMARK   31  A    between atoms: CB   and  CG  
ROOT
ATOM     94  CA  PHE A 114      -7.754  -3.619  17.012  1.00 26.06     0.180 C 
ENDROOT
BRANCH  94  95
ATOM     95  CB  PHE A 114      -8.890  -3.080  17.867  1.00 19.95     0.073 C 
BRANCH  95  96
ATOM     96  CG  PHE A 114      -8.746  -1.630  18.197  1.00 17.65    -0.056 A 
ATOM     97  CD1 PHE A 114      -8.968  -1.167  19.491  1.00 13.01     0.007 A 
ATOM     98  CE1 PHE A 114      -8.864   0.184  19.792  1.00  6.74     0.001 A 
ATOM     99  CZ  PHE A 114      -8.530   1.097  18.796  1.00  6.27     0.000 A 
ATOM    100  CE2 PHE A 114      -8.306   0.648  17.504  1.00 17.36     0.001 A 
ATOM    101  CD2 PHE A 114      -8.414  -0.715  17.207  1.00 18.39     0.007 A 
ENDBRANCH  95  96
ENDBRANCH  94  95
END_RES PHE A 114
BEGIN_RES VAL A 116
REMARK  1 active torsions:
REMARK  status: ('A' for Active; 'I' for Inactive)
REMARK   32  A    between atoms: CA   and  CB  
ROOT
ATOM    102  CA  VAL A 116      -2.467   0.283  18.565  1.00 13.48     0.180 C 
ENDROOT
BRANCH 102 103
ATOM    103  CB  VAL A 116      -3.101   1.238  19.599  1.00 20.86     0.009 C 
ATOM    104  CG1 VAL A 116      -2.975   2.682  19.106  1.00 25.01     0.012 C 
ATOM    105  CG2 VAL A 116      -4.540   0.864  19.866  1.00 25.34     0.012 C 
ENDBRANCH 102 103
END_RES VAL A 116
BEGIN_RES ILE A 123
REMARK  2 active torsions:
REMARK  status: ('A' for Active; 'I' for Inactive)
REMARK   33  A    between atoms: CA   and  CB  
REMARK   34  A    between atoms: CB   and  CG1 
ROOT
ATOM    106  CA  ILE A 123       1.557  -1.626  23.222  1.00 15.07     0.180 C 
ENDROOT
BRANCH 106 107
ATOM    107  CB  ILE A 123       1.697  -0.112  23.461  1.00 14.41     0.013 C 
ATOM    108  CG2 ILE A 123       3.102   0.208  23.940  1.00 18.35     0.012 C 
BRANCH 107 109
ATOM    109  CG1 ILE A 123       1.388   0.658  22.179  1.00 15.23     0.002 C 
ATOM    110  CD1 ILE A 123       0.241   1.630  22.318  1.00 14.67     0.005 C 
ENDBRANCH 107 109
ENDBRANCH 106 107
END_RES ILE A 123
BEGIN_RES LEU A 124
REMARK  2 active torsions:
REMARK  status: ('A' for Active; 'I' for Inactive)
REMARK   35  A    between atoms: CA   and  CB  
REMARK   36  A    between atoms: CB   and  CG  
ROOT
ATOM    111  CA  LEU A 124      -2.057  -2.686  23.524  1.00 11.86     0.177 C 
ENDROOT
BRANCH 111 112
ATOM    112  CB  LEU A 124      -2.698  -1.652  24.429  1.00 14.60     0.038 C 
BRANCH 112 113
ATOM    113  CG  LEU A 124      -2.616  -0.250  23.843  1.00 16.19    -0.020 C 
ATOM    114  CD1 LEU A 124      -4.029   0.206  23.434  1.00 22.07     0.009 C 
ATOM    115  CD2 LEU A 124      -1.995   0.681  24.854  1.00  9.12     0.009 C 
ENDBRANCH 112 113
ENDBRANCH 111 112
END_RES LEU A 124
BEGIN_RES PHE A 126
REMARK  2 active torsions:
REMARK  status: ('A' for Active; 'I' for Inactive)
REMARK   37  A    between atoms: CA   and  CB  
REMARK   38  A    between atoms: CB   and  CG  
ROOT
ATOM    116  CA  PHE A 126      -8.784  -4.792  22.233  1.00 23.15     0.180 C 
ENDROOT
BRANCH 116 117
ATOM    117  CB  PHE A 126      -9.823  -4.011  21.461  1.00 20.65     0.073 C 
BRANCH 117 118
ATOM    118  CG  PHE A 126     -10.955  -3.553  22.294  1.00 23.65    -0.056 A 
ATOM    119  CD2 PHE A 126     -12.213  -4.112  22.145  1.00 36.63     0.007 A 
ATOM    120  CE2 PHE A 126     -13.285  -3.678  22.937  1.00 36.27     0.001 A 
ATOM    121  CZ  PHE A 126     -13.089  -2.679  23.879  1.00 18.06     0.000 A 
ATOM    122  CE1 PHE A 126     -11.836  -2.120  24.031  1.00  5.50     0.001 A 
ATOM    123  CD1 PHE A 126     -10.774  -2.560  23.242  1.00 15.29     0.007 A 
ENDBRANCH 117 118
ENDBRANCH 116 117
END_RES PHE A 126
BEGIN_RES TRP A 131
REMARK  2 active torsions:
REMARK  status: ('A' for Active; 'I' for Inactive)
REMARK   39  A    between atoms: CA   and  CB  
REMARK   40  A    between atoms: CB   and  CG  
ROOT
ATOM    124  CA  TRP A 131      -8.096  -3.335  26.542  1.00 14.52     0.181 C 
ENDROOT
BRANCH 124 125
ATOM    125  CB  TRP A 131      -7.651  -1.877  26.607  1.00 13.06     0.075 C 
BRANCH 125 126
ATOM    126  CG  TRP A 131      -8.031  -1.057  25.394  1.00 16.97    -0.028 A 
ATOM    127  CD2 TRP A 131      -9.117  -0.132  25.297  1.00 11.34    -0.002 A 
ATOM    128  CE2 TRP A 131      -9.098   0.409  23.997  1.00  5.87     0.042 A 
ATOM    129  CE3 TRP A 131     -10.108   0.291  26.191  1.00  3.80     0.014 A 
ATOM    130  CZ2 TRP A 131     -10.031   1.354  23.567  1.00  1.35     0.030 A 
ATOM    131  NE1 TRP A 131      -8.049  -0.162  23.330  1.00 13.90    -0.365 N 
ATOM    132  CH2 TRP A 131     -10.991   1.752  24.464  1.00  1.00     0.002 A 
ATOM    133  CZ3 TRP A 131     -11.036   1.226  25.769  1.00  1.00     0.001 A 
ATOM    134  CD1 TRP A 131      -7.412  -1.041  24.174  1.00 17.22     0.096 A 
ATOM    135  H07 TRP A 131      -7.785   0.031  22.374  1.00 13.90     0.165 HD
ENDBRANCH 125 126
ENDBRANCH 124 125
END_RES TRP A 131
BEGIN_RES LEU A 148
REMARK  2 active torsions:
REMARK  status: ('A' for Active; 'I' for Inactive)
REMARK   41  A    between atoms: CA   and  CB  
REMARK   42  A    between atoms: CB   and  CG  
ROOT
ATOM    136  CA  LEU A 148      -9.018   3.259  29.295  1.00 16.99     0.177 C 
ENDROOT
BRANCH 136 137
ATOM    137  CB  LEU A 148      -8.166   2.574  28.236  1.00  6.39     0.038 C 
BRANCH 137 138
ATOM    138  CG  LEU A 148      -7.540   3.364  27.105  1.00  1.00    -0.020 C 
ATOM    139  CD2 LEU A 148      -8.604   4.026  26.280  1.00  1.00     0.009 C 
ATOM    140  CD1 LEU A 148      -6.722   2.409  26.254  1.00  2.71     0.009 C 
ENDBRANCH 137 138
ENDBRANCH 136 137
END_RES LEU A 148
BEGIN_RES THR A 154
REMARK  2 active torsions:
REMARK  status: ('A' for Active; 'I' for Inactive)
REMARK   43  A    between atoms: CA   and  CB  
REMARK   44  A    between atoms: CB   and  OG1 
ROOT
ATOM    141  CA  THR A 154     -15.990   3.959  24.426  1.00 20.45     0.205 C 
ENDROOT
BRANCH 141 142
ATOM    142  CB  THR A 154     -14.777   4.829  24.694  1.00 16.79     0.146 C 
ATOM    143  CG2 THR A 154     -13.658   4.478  23.732  1.00 20.24     0.042 C 
BRANCH 142 144
ATOM    144  OG1 THR A 154     -15.139   6.202  24.502  1.00 18.84    -0.393 OA
ATOM    145  H06 THR A 154     -15.667   6.502  25.245  1.00 18.84     0.210 HD
ENDBRANCH 142 144
ENDBRANCH 141 142
END_RES THR A 154
BEGIN_RES VAL A 158
REMARK  1 active torsions:
REMARK  status: ('A' for Active; 'I' for Inactive)
REMARK   45  A    between atoms: CA   and  CB  
ROOT
ATOM    146  CA  VAL A 158     -15.487  -0.189  19.892  1.00 15.49     0.180 C 
ENDROOT
BRANCH 146 147
ATOM    147  CB  VAL A 158     -14.291  -0.273  20.822  1.00  6.52     0.009 C 
ATOM    148  CG1 VAL A 158     -13.245  -1.214  20.271  1.00  1.00     0.012 C 
ATOM    149  CG2 VAL A 158     -13.725   1.102  21.001  1.00  5.99     0.012 C 
ENDBRANCH 146 147
END_RES VAL A 158
BEGIN_RES LEU A 161
REMARK  2 active torsions:
REMARK  status: ('A' for Active; 'I' for Inactive)
REMARK   46  A    between atoms: CA   and  CB  
REMARK   47  A    between atoms: CB   and  CG  
ROOT
ATOM    150  CA  LEU A 161     -18.031  -1.858  15.935  1.00 13.31     0.177 C 
ENDROOT
BRANCH 150 151
ATOM    151  CB  LEU A 161     -17.046  -0.706  16.001  1.00 14.13     0.038 C 
BRANCH 151 152
ATOM    152  CG  LEU A 161     -17.530   0.628  15.447  1.00 19.39    -0.020 C 
ATOM    153  CD2 LEU A 161     -17.004   1.765  16.289  1.00 27.75     0.009 C 
ATOM    154  CD1 LEU A 161     -19.035   0.638  15.447  1.00 18.59     0.009 C 
ENDBRANCH 151 152
ENDBRANCH 150 151
END_RES LEU A 161
BEGIN_RES GLN A 168
REMARK  3 active torsions:
REMARK  status: ('A' for Active; 'I' for Inactive)
REMARK   48  A    between atoms: CA   and  CB  
REMARK   49  A    between atoms: CB   and  CG  
REMARK   50  A    between atoms: CG   and  CD  
REMARK       I    between atoms: CD   and  NE2 
ROOT
ATOM    155  CA  GLN A 168     -22.035  -6.020   8.155  1.00 30.94     0.177 C 
ENDROOT
BRANCH 155 156
ATOM    156  CB  GLN A 168     -23.054  -5.218   8.946  1.00 41.76     0.044 C 
BRANCH 156 157
ATOM    157  CG  GLN A 168     -24.451  -5.777   8.911  1.00 61.20     0.105 C 
BRANCH 157 158
ATOM    158  CD  GLN A 168     -25.251  -5.227   7.746  1.00 75.49     0.215 C 
ATOM    159  NE2 GLN A 168     -26.323  -5.932   7.382  1.00 85.00    -0.370 N 
ATOM    160  H06 GLN A 168     -26.895  -5.619   6.611  1.00 85.00     0.159 HD
ATOM    161  H07 GLN A 168     -26.562  -6.780   7.878  1.00 85.00     0.159 HD
ATOM    162  OE1 GLN A 168     -24.909  -4.183   7.172  1.00 73.64    -0.274 OA
ENDBRANCH 157 158
ENDBRANCH 156 157
ENDBRANCH 155 156
END_RES GLN A 168
ENDMDL
MODEL 8
REMARK VINA RESULT:     -11.5      2.291      4.481
REMARK  Name = human_CD1d_CHAPS_pred.rank_0
REMARK  12 active torsions:
REMARK  status: ('A' for Active; 'I' for Inactive)
REMARK    1  A    between atoms: N_2  and  C_14
REMARK    2  A    between atoms: S_4  and  C_23
REMARK    3  A    between atoms: C_5  and  C_8
REMARK    4  A    between atoms: C_5  and  C_24
REMARK    5  A    between atoms: N_6  and  C_18
REMARK    6  A    between atoms: N_6  and  C_21
REMARK    7  A    between atoms: C_8  and  C_10
REMARK    8  A    between atoms: C_10  and  C_12
REMARK    9  A    between atoms: C_14  and  C_16
REMARK   10  A    between atoms: C_16  and  C_18
REMARK   11  A    between atoms: C_21  and  C_22
REMARK   12  A    between atoms: C_22  and  C_23
REMARK                            x       y       z     vdW  Elec       q    Type
REMARK                         _______ _______ _______ _____ _____    ______ ____
ROOT
ATOM      1  O   UNL     1      -2.867   6.587  23.818  0.00  0.00    +0.000 OA
ATOM      2  O   UNL     1      -7.960   7.374  22.079  0.00  0.00    +0.000 OA
ATOM      3  O   UNL     1      -8.224   5.280  18.436  0.00  0.00    +0.000 OA
ATOM      4  C   UNL     1     -11.073   4.753  19.003  0.00  0.00    +0.000 C 
ATOM      5  C   UNL     1     -11.993   5.349  20.100  0.00  0.00    +0.000 C 
ATOM      6  C   UNL     1     -11.129   5.568  21.328  0.00  0.00    +0.000 C 
ATOM      7  C   UNL     1      -9.708   5.332  20.845  0.00  0.00    +0.000 C 
ATOM      8  C   UNL     1      -9.879   4.195  19.838  0.00  0.00    +0.000 C 
ATOM      9  C   UNL     1      -8.531   4.055  19.132  0.00  0.00    +0.000 C 
ATOM     10  C   UNL     1      -7.385   3.716  20.159  0.00  0.00    +0.000 C 
ATOM     11  C   UNL     1      -7.285   4.703  21.331  0.00  0.00    +0.000 C 
ATOM     12  C   UNL     1      -8.649   5.044  21.928  0.00  0.00    +0.000 C 
ATOM     13  C   UNL     1      -8.499   6.312  22.828  0.00  0.00    +0.000 C 
ATOM     14  C   UNL     1      -7.562   5.890  24.018  0.00  0.00    +0.000 C 
ATOM     15  C   UNL     1      -6.304   5.176  23.682  0.00  0.00    +0.000 C 
ATOM     16  C   UNL     1      -6.271   4.240  22.442  0.00  0.00    +0.000 C 
ATOM     17  C   UNL     1      -4.860   4.091  21.802  0.00  0.00    +0.000 C 
ATOM     18  C   UNL     1      -3.843   5.183  22.127  0.00  0.00    +0.000 C 
ATOM     19  C   UNL     1      -3.923   5.631  23.556  0.00  0.00    +0.000 C 
ATOM     20  C   UNL     1      -5.249   6.275  23.714  0.00  0.00    +0.000 C 
ATOM     21  C   UNL     1      -6.589   2.919  22.981  0.00  0.00    +0.000 C 
ATOM     22  C   UNL     1     -10.285   2.856  20.440  0.00  0.00    +0.000 C 
ENDROOT
BRANCH   4  24
ATOM     23  C   UNL     1     -11.471   3.944  16.640  0.00  0.00    +0.000 C 
ATOM     24  C   UNL     1     -11.825   3.771  18.093  0.00  0.00    +0.000 C 
BRANCH  24  25
ATOM     25  C   UNL     1     -13.365   4.010  18.290  0.00  0.00    +0.000 C 
BRANCH  25  26
ATOM     26  C   UNL     1     -13.866   4.966  17.225  0.00  0.00    +0.000 C 
BRANCH  26  29
ATOM     27  N   UNL     1     -14.736   4.356  15.005  0.00  0.00    +0.000 NA
ATOM     28  O   UNL     1     -15.676   3.436  16.835  0.00  0.00    +0.000 OA
ATOM     29  C   UNL     1     -14.865   4.201  16.342  0.00  0.00    +0.000 C 
BRANCH  27  30
ATOM     30  C   UNL     1     -15.562   3.508  14.075  0.00  0.00    +0.000 C 
BRANCH  30  31
ATOM     31  C   UNL     1     -14.687   2.645  13.150  0.00  0.00    +0.000 C 
BRANCH  31  32
ATOM     32  C   UNL     1     -13.825   1.714  13.919  0.00  0.00    +0.000 C 
BRANCH  32  33
ATOM     33  N   UNL     1     -13.293   0.646  13.051  0.00  0.00    +0.000 N 
ATOM     34  C   UNL     1     -13.177  -0.551  13.856  0.00  0.00    +0.000 C 
ATOM     35  C   UNL     1     -14.142   0.376  11.901  0.00  0.00    +0.000 C 
BRANCH  33  36
ATOM     36  C   UNL     1     -11.920   1.055  12.571  0.00  0.00    +0.000 C 
BRANCH  36  37
ATOM     37  C   UNL     1     -11.099   1.887  13.619  0.00  0.00    +0.000 C 
BRANCH  37  38
ATOM     38  C   UNL     1     -10.501   3.087  12.947  0.00  0.00    +0.000 C 
BRANCH  38  39
ATOM     39  S   UNL     1      -8.806   3.041  13.149  0.00  0.00    +0.000 S 
ATOM     40  O   UNL     1      -8.180   3.446  11.904  0.00  0.00    +0.000 OA
ATOM     41  O   UNL     1      -8.351   1.698  13.547  0.00  0.00    +0.000 OA
ATOM     42  O   UNL     1      -8.457   3.975  14.233  0.00  0.00    +0.000 OA
ENDBRANCH  38  39
ENDBRANCH  37  38
ENDBRANCH  36  37
ENDBRANCH  33  36
ENDBRANCH  32  33
ENDBRANCH  31  32
ENDBRANCH  30  31
ENDBRANCH  27  30
ENDBRANCH  26  29
ENDBRANCH  25  26
ENDBRANCH  24  25
ENDBRANCH   4  24
TORSDOF 12
BEGIN_RES LEU A  10
REMARK  2 active torsions:
REMARK  status: ('A' for Active; 'I' for Inactive)
REMARK    1  A    between atoms: CA   and  CB  
REMARK    2  A    between atoms: CB   and  CG  
ROOT
ATOM      1  CA  LEU A  10     -10.775  -4.871   5.898  1.00 25.14     0.177 C 
ENDROOT
BRANCH   1   2
ATOM      2  CB  LEU A  10     -12.191  -4.387   6.226  1.00 17.87     0.038 C 
BRANCH   2   3
ATOM      3  CG  LEU A  10     -12.425  -2.896   5.972  1.00 24.95    -0.020 C 
ATOM      4  CD2 LEU A  10     -13.652  -2.465   6.702  1.00 26.38     0.009 C 
ATOM      5  CD1 LEU A  10     -12.560  -2.613   4.486  1.00 28.12     0.009 C 
ENDBRANCH   2   3
ENDBRANCH   1   2
END_RES LEU A  10
BEGIN_RES CYS A  12
REMARK  2 active torsions:
REMARK  status: ('A' for Active; 'I' for Inactive)
REMARK    3  A    between atoms: CA   and  CB  
REMARK    4  A    between atoms: CB   and  SG  
ROOT
ATOM      6  CA  CYS A  12      -8.555   0.470   8.750  1.00 23.16     0.185 C 
ENDROOT
BRANCH   6   7
ATOM      7  CB  CYS A  12      -9.828   0.763   9.555  1.00 20.43     0.105 C 
BRANCH   7   8
ATOM      8  SG  CYS A  12     -10.864   2.128   8.944  1.00 24.64    -0.180 SA
ATOM      9  H04 CYS A  12     -10.320   2.641   7.833  1.00 24.64     0.101 HD
ENDBRANCH   7   8
ENDBRANCH   6   7
END_RES CYS A  12
BEGIN_RES GLN A  14
REMARK  3 active torsions:
REMARK  status: ('A' for Active; 'I' for Inactive)
REMARK    5  A    between atoms: CA   and  CB  
REMARK    6  A    between atoms: CB   and  CG  
REMARK    7  A    between atoms: CG   and  CD  
REMARK       I    between atoms: CD   and  NE2 
ROOT
ATOM     10  CA  GLN A  14      -4.645   5.402  11.377  1.00 10.43     0.177 C 
ENDROOT
BRANCH  10  11
ATOM     11  CB  GLN A  14      -5.541   5.549  12.608  1.00 14.45     0.044 C 
BRANCH  11  12
ATOM     12  CG  GLN A  14      -6.737   6.449  12.397  1.00 13.74     0.105 C 
BRANCH  12  13
ATOM     13  CD  GLN A  14      -6.341   7.857  12.024  1.00 16.29     0.215 C 
ATOM     14  NE2 GLN A  14      -5.398   8.414  12.753  1.00  8.57    -0.370 N 
ATOM     15  H06 GLN A  14      -5.091   9.354  12.549  1.00  8.57     0.159 HD
ATOM     16  H07 GLN A  14      -4.982   7.901  13.517  1.00  8.57     0.159 HD
ATOM     17  OE1 GLN A  14      -6.874   8.435  11.089  1.00 23.55    -0.274 OA
ENDBRANCH  12  13
ENDBRANCH  11  12
ENDBRANCH  10  11
END_RES GLN A  14
BEGIN_RES SER A  16
REMARK  2 active torsions:
REMARK  status: ('A' for Active; 'I' for Inactive)
REMARK    8  A    between atoms: CA   and  CB  
REMARK    9  A    between atoms: CB   and  OG  
ROOT
ATOM     18  CA  SER A  16      -1.305  10.019  14.282  1.00  2.34     0.200 C 
ENDROOT
BRANCH  18  19
ATOM     19  CB  SER A  16      -2.242   9.935  15.479  1.00  3.12     0.199 C 
BRANCH  19  20
ATOM     20  OG  SER A  16      -2.539  11.233  15.964  1.00  1.00    -0.398 OA
ATOM     21  H04 SER A  16      -3.158  11.663  15.369  1.00  1.00     0.209 HD
ENDBRANCH  19  20
ENDBRANCH  18  19
END_RES SER A  16
BEGIN_RES LEU A  32
REMARK  2 active torsions:
REMARK  status: ('A' for Active; 'I' for Inactive)
REMARK   10  A    between atoms: CA   and  CB  
REMARK   11  A    between atoms: CB   and  CG  
ROOT
ATOM     22  CA  LEU A  32     -10.272  -4.106   1.587  1.00 16.16     0.177 C 
ENDROOT
BRANCH  22  23
ATOM     23  CB  LEU A  32     -11.613  -3.858   0.880  1.00 12.35     0.038 C 
BRANCH  23  24
ATOM     24  CG  LEU A  32     -12.510  -5.113   0.893  1.00  9.77    -0.020 C 
ATOM     25  CD1 LEU A  32     -13.007  -5.388   2.292  1.00  4.35     0.009 C 
ATOM     26  CD2 LEU A  32     -13.681  -4.946  -0.039  1.00 10.60     0.009 C 
ENDBRANCH  23  24
ENDBRANCH  22  23
END_RES LEU A  32
BEGIN_RES HIS A  38
REMARK  2 active torsions:
REMARK  status: ('A' for Active; 'I' for Inactive)
REMARK   12  A    between atoms: CA   and  CB  
REMARK   13  A    between atoms: CB   and  CG  
ROOT
ATOM     27  CA  HIS A  38     -10.959   4.941   1.621  1.00 16.94     0.182 C 
ENDROOT
BRANCH  27  28
ATOM     28  CB  HIS A  38     -11.810   4.840   2.881  1.00 15.47     0.095 C 
BRANCH  28  29
ATOM     29  CG  HIS A  38     -12.991   3.935   2.741  1.00 18.62     0.053 A 
ATOM     30  CD2 HIS A  38     -14.152   4.087   2.060  1.00 15.06     0.116 A 
ATOM     31  NE2 HIS A  38     -14.879   2.939   2.243  1.00 18.12    -0.359 N 
ATOM     32  CE1 HIS A  38     -14.192   2.112   3.008  1.00 14.78     0.207 A 
ATOM     33  H06 HIS A  38     -15.793   2.756   1.854  1.00 18.12     0.166 HD
ATOM     34  ND1 HIS A  38     -13.050   2.688   3.324  1.00 16.58    -0.247 NA
ENDBRANCH  28  29
ENDBRANCH  27  28
END_RES HIS A  38
BEGIN_RES TRP A  63
REMARK  2 active torsions:
REMARK  status: ('A' for Active; 'I' for Inactive)
REMARK   14  A    between atoms: CA   and  CB  
REMARK   15  A    between atoms: CB   and  CG  
ROOT
ATOM     35  CA  TRP A  63     -22.437   6.257   6.543  1.00 27.04     0.181 C 
ENDROOT
BRANCH  35  36
ATOM     36  CB  TRP A  63     -22.360   6.642   5.068  1.00 31.37     0.075 C 
BRANCH  36  37
ATOM     37  CG  TRP A  63     -20.953   6.740   4.516  1.00 34.37    -0.028 A 
ATOM     38  CD2 TRP A  63     -19.901   5.775   4.647  1.00 33.79    -0.002 A 
ATOM     39  CE3 TRP A  63     -19.781   4.551   5.308  1.00 32.99     0.014 A 
ATOM     40  CE2 TRP A  63     -18.796   6.261   3.913  1.00 35.84     0.042 A 
ATOM     41  CZ3 TRP A  63     -18.581   3.859   5.219  1.00 32.93     0.001 A 
ATOM     42  CH2 TRP A  63     -17.500   4.369   4.482  1.00 39.24     0.002 A 
ATOM     43  CZ2 TRP A  63     -17.589   5.566   3.822  1.00 37.99     0.030 A 
ATOM     44  NE1 TRP A  63     -19.164   7.460   3.368  1.00 37.98    -0.365 N 
ATOM     45  H06 TRP A  63     -18.580   8.046   2.789  1.00 37.98     0.165 HD
ATOM     46  CD1 TRP A  63     -20.458   7.739   3.737  1.00 38.16     0.096 A 
ENDBRANCH  36  37
ENDBRANCH  35  36
END_RES TRP A  63
BEGIN_RES LEU A  66
REMARK  2 active torsions:
REMARK  status: ('A' for Active; 'I' for Inactive)
REMARK   16  A    between atoms: CA   and  CB  
REMARK   17  A    between atoms: CB   and  CG  
ROOT
ATOM     47  CA  LEU A  66     -20.004   6.489  11.120  1.00 10.90     0.177 C 
ENDROOT
BRANCH  47  48
ATOM     48  CB  LEU A  66     -19.626   5.453  10.069  1.00 13.57     0.038 C 
BRANCH  48  49
ATOM     49  CG  LEU A  66     -19.467   4.007  10.537  1.00  8.73    -0.020 C 
ATOM     50  CD1 LEU A  66     -20.814   3.379  10.787  1.00 14.23     0.009 C 
ATOM     51  CD2 LEU A  66     -18.728   3.239   9.473  1.00  1.92     0.009 C 
ENDBRANCH  48  49
ENDBRANCH  47  48
END_RES LEU A  66
BEGIN_RES PHE A  70
REMARK  2 active torsions:
REMARK  status: ('A' for Active; 'I' for Inactive)
REMARK   18  A    between atoms: CA   and  CB  
REMARK   19  A    between atoms: CB   and  CG  
ROOT
ATOM     52  CA  PHE A  70     -14.974   9.434  13.165  1.00  8.78     0.180 C 
ENDROOT
BRANCH  52  53
ATOM     53  CB  PHE A  70     -14.707   9.132  11.681  1.00  6.33     0.073 C 
BRANCH  53  54
ATOM     54  CG  PHE A  70     -14.021   7.813  11.453  1.00  3.42    -0.056 A 
ATOM     55  CD1 PHE A  70     -13.636   7.013  12.518  1.00 13.88     0.007 A 
ATOM     56  CE1 PHE A  70     -12.953   5.804  12.300  1.00 12.71     0.001 A 
ATOM     57  CZ  PHE A  70     -12.654   5.391  11.001  1.00  4.21     0.000 A 
ATOM     58  CE2 PHE A  70     -13.035   6.179   9.930  1.00  2.83     0.001 A 
ATOM     59  CD2 PHE A  70     -13.717   7.386  10.159  1.00  1.00     0.007 A 
ENDBRANCH  53  54
ENDBRANCH  52  53
END_RES PHE A  70
BEGIN_RES TYR A  73
REMARK  3 active torsions:
REMARK  status: ('A' for Active; 'I' for Inactive)
REMARK   20  A    between atoms: CA   and  CB  
REMARK   21  A    between atoms: CB   and  CG  
REMARK   22  A    between atoms: CZ   and  OH  
ROOT
ATOM     60  CA  TYR A  73     -13.212  10.166  17.260  1.00 12.17     0.180 C 
ENDROOT
BRANCH  60  61
ATOM     61  CB  TYR A  73     -13.301   8.846  16.517  1.00 12.84     0.073 C 
BRANCH  61  62
ATOM     62  CG  TYR A  73     -11.970   8.231  16.258  1.00 15.89    -0.056 A 
ATOM     63  CD1 TYR A  73     -11.524   8.016  14.973  1.00 16.00     0.010 A 
ATOM     64  CE1 TYR A  73     -10.291   7.413  14.728  1.00 13.55     0.037 A 
ATOM     65  CZ  TYR A  73      -9.505   7.023  15.793  1.00 18.13     0.065 A 
ATOM     66  CE2 TYR A  73      -9.926   7.227  17.087  1.00 15.89     0.037 A 
ATOM     67  CD2 TYR A  73     -11.157   7.831  17.312  1.00 21.86     0.010 A 
BRANCH  65  68
ATOM     68  OH  TYR A  73      -8.285   6.432  15.575  1.00 12.12    -0.361 OA
ATOM     69  H08 TYR A  73      -7.617   6.869  16.109  1.00 12.12     0.217 HD
ENDBRANCH  65  68
ENDBRANCH  61  62
ENDBRANCH  60  61
END_RES TYR A  73
BEGIN_RES PHE A  77
REMARK  2 active torsions:
REMARK  status: ('A' for Active; 'I' for Inactive)
REMARK   23  A    between atoms: CA   and  CB  
REMARK   24  A    between atoms: CB   and  CG  
ROOT
ATOM     70  CA  PHE A  77      -8.400  10.581  20.110  1.00 17.17     0.180 C 
ENDROOT
BRANCH  70  71
ATOM     71  CB  PHE A  77      -8.228   9.750  18.851  1.00 10.44     0.073 C 
BRANCH  71  72
ATOM     72  CG  PHE A  77      -6.910   9.047  18.768  1.00  6.07    -0.056 A 
ATOM     73  CD2 PHE A  77      -6.640   7.968  19.580  1.00  9.61     0.007 A 
ATOM     74  CE2 PHE A  77      -5.419   7.308  19.509  1.00  1.00     0.001 A 
ATOM     75  CZ  PHE A  77      -4.455   7.732  18.610  1.00  1.92     0.000 A 
ATOM     76  CE1 PHE A  77      -4.710   8.808  17.790  1.00  9.25     0.001 A 
ATOM     77  CD1 PHE A  77      -5.938   9.463  17.873  1.00  9.63     0.007 A 
ENDBRANCH  71  72
ENDBRANCH  70  71
END_RES PHE A  77
BEGIN_RES LEU A  96
REMARK  2 active torsions:
REMARK  status: ('A' for Active; 'I' for Inactive)
REMARK   25  A    between atoms: CA   and  CB  
REMARK   26  A    between atoms: CB   and  CG  
ROOT
ATOM     78  CA  LEU A  96       0.717   6.481  17.359  1.00 16.08     0.177 C 
ENDROOT
BRANCH  78  79
ATOM     79  CB  LEU A  96      -0.370   7.101  18.230  1.00 18.83     0.038 C 
BRANCH  79  80
ATOM     80  CG  LEU A  96      -0.056   7.112  19.726  1.00 19.03    -0.020 C 
ATOM     81  CD1 LEU A  96       0.689   8.384  20.058  1.00 28.17     0.009 C 
ATOM     82  CD2 LEU A  96      -1.332   7.080  20.533  1.00 22.01     0.009 C 
ENDBRANCH  79  80
ENDBRANCH  78  79
END_RES LEU A  96
BEGIN_RES VAL A  98
REMARK  1 active torsions:
REMARK  status: ('A' for Active; 'I' for Inactive)
REMARK   27  A    between atoms: CA   and  CB  
ROOT
ATOM     83  CA  VAL A  98      -3.928   2.082  14.897  1.00 19.83     0.180 C 
ENDROOT
BRANCH  83  84
ATOM     84  CB  VAL A  98      -5.203   2.807  15.281  1.00 17.87     0.009 C 
ATOM     85  CG2 VAL A  98      -4.915   4.265  15.526  1.00 29.90     0.012 C 
ATOM     86  CG1 VAL A  98      -5.800   2.163  16.514  1.00 14.79     0.012 C 
ENDBRANCH  83  84
END_RES VAL A  98
BEGIN_RES ASN A 112
REMARK  2 active torsions:
REMARK  status: ('A' for Active; 'I' for Inactive)
REMARK   28  A    between atoms: CA   and  CB  
REMARK   29  A    between atoms: CB   and  CG  
REMARK       I    between atoms: CG   and  ND2 
ROOT
ATOM     87  CA  ASN A 112     -11.790  -8.793  14.069  1.00 37.70     0.185 C 
ENDROOT
BRANCH  87  88
ATOM     88  CB  ASN A 112     -12.992  -7.945  14.465  1.00 26.24     0.137 C 
BRANCH  88  89
ATOM     89  CG  ASN A 112     -13.830  -8.577  15.554  1.00 21.77     0.217 C 
ATOM     90  ND2 ASN A 112     -14.989  -9.110  15.169  1.00  9.31    -0.370 N 
ATOM     91  H04 ASN A 112     -15.595  -9.545  15.850  1.00  9.31     0.159 HD
ATOM     92  H05 ASN A 112     -15.261  -9.079  14.197  1.00  9.31     0.159 HD
ATOM     93  OD1 ASN A 112     -13.446  -8.583  16.729  1.00 21.61    -0.274 OA
ENDBRANCH  88  89
ENDBRANCH  87  88
END_RES ASN A 112
BEGIN_RES PHE A 114
REMARK  2 active torsions:
REMARK  status: ('A' for Active; 'I' for Inactive)
REMARK   30  A    between atoms: CA   and  CB  
REMARK   31  A    between atoms: CB   and  CG  
ROOT
ATOM     94  CA  PHE A 114      -7.754  -3.619  17.012  1.00 26.06     0.180 C 
ENDROOT
BRANCH  94  95
ATOM     95  CB  PHE A 114      -8.890  -3.080  17.867  1.00 19.95     0.073 C 
BRANCH  95  96
ATOM     96  CG  PHE A 114      -9.204  -1.644  17.597  1.00 17.65    -0.056 A 
ATOM     97  CD1 PHE A 114      -8.188  -0.699  17.495  1.00 13.01     0.007 A 
ATOM     98  CE1 PHE A 114      -8.480   0.640  17.274  1.00  6.74     0.001 A 
ATOM     99  CZ  PHE A 114      -9.804   1.053  17.148  1.00  6.27     0.000 A 
ATOM    100  CE2 PHE A 114     -10.824   0.121  17.246  1.00 17.36     0.001 A 
ATOM    101  CD2 PHE A 114     -10.522  -1.226  17.471  1.00 18.39     0.007 A 
ENDBRANCH  95  96
ENDBRANCH  94  95
END_RES PHE A 114
BEGIN_RES VAL A 116
REMARK  1 active torsions:
REMARK  status: ('A' for Active; 'I' for Inactive)
REMARK   32  A    between atoms: CA   and  CB  
ROOT
ATOM    102  CA  VAL A 116      -2.467   0.283  18.565  1.00 13.48     0.180 C 
ENDROOT
BRANCH 102 103
ATOM    103  CB  VAL A 116      -3.101   1.238  19.599  1.00 20.86     0.009 C 
ATOM    104  CG1 VAL A 116      -3.047   2.674  19.070  1.00 25.01     0.012 C 
ATOM    105  CG2 VAL A 116      -4.515   0.818  19.924  1.00 25.34     0.012 C 
ENDBRANCH 102 103
END_RES VAL A 116
BEGIN_RES ILE A 123
REMARK  2 active torsions:
REMARK  status: ('A' for Active; 'I' for Inactive)
REMARK   33  A    between atoms: CA   and  CB  
REMARK   34  A    between atoms: CB   and  CG1 
ROOT
ATOM    106  CA  ILE A 123       1.557  -1.626  23.222  1.00 15.07     0.180 C 
ENDROOT
BRANCH 106 107
ATOM    107  CB  ILE A 123       1.697  -0.112  23.461  1.00 14.41     0.013 C 
ATOM    108  CG2 ILE A 123       3.102   0.208  23.941  1.00 18.35     0.012 C 
BRANCH 107 109
ATOM    109  CG1 ILE A 123       1.389   0.658  22.179  1.00 15.23     0.002 C 
ATOM    110  CD1 ILE A 123       0.237   1.624  22.314  1.00 14.67     0.005 C 
ENDBRANCH 107 109
ENDBRANCH 106 107
END_RES ILE A 123
BEGIN_RES LEU A 124
REMARK  2 active torsions:
REMARK  status: ('A' for Active; 'I' for Inactive)
REMARK   35  A    between atoms: CA   and  CB  
REMARK   36  A    between atoms: CB   and  CG  
ROOT
ATOM    111  CA  LEU A 124      -2.057  -2.686  23.524  1.00 11.86     0.177 C 
ENDROOT
BRANCH 111 112
ATOM    112  CB  LEU A 124      -2.698  -1.652  24.429  1.00 14.60     0.038 C 
BRANCH 112 113
ATOM    113  CG  LEU A 124      -2.624  -0.252  23.839  1.00 16.19    -0.020 C 
ATOM    114  CD1 LEU A 124      -4.042   0.203  23.446  1.00 22.07     0.009 C 
ATOM    115  CD2 LEU A 124      -1.991   0.682  24.840  1.00  9.12     0.009 C 
ENDBRANCH 112 113
ENDBRANCH 111 112
END_RES LEU A 124
BEGIN_RES PHE A 126
REMARK  2 active torsions:
REMARK  status: ('A' for Active; 'I' for Inactive)
REMARK   37  A    between atoms: CA   and  CB  
REMARK   38  A    between atoms: CB   and  CG  
ROOT
ATOM    116  CA  PHE A 126      -8.784  -4.792  22.233  1.00 23.15     0.180 C 
ENDROOT
BRANCH 116 117
ATOM    117  CB  PHE A 126      -9.823  -4.011  21.461  1.00 20.65     0.073 C 
BRANCH 117 118
ATOM    118  CG  PHE A 126     -10.955  -3.552  22.294  1.00 23.65    -0.056 A 
ATOM    119  CD2 PHE A 126     -10.776  -2.562  23.244  1.00 36.63     0.007 A 
ATOM    120  CE2 PHE A 126     -11.850  -2.127  24.033  1.00 36.27     0.001 A 
ATOM    121  CZ  PHE A 126     -13.106  -2.692  23.864  1.00 18.06     0.000 A 
ATOM    122  CE1 PHE A 126     -13.288  -3.678  22.915  1.00  5.50     0.001 A 
ATOM    123  CD1 PHE A 126     -12.214  -4.103  22.133  1.00 15.29     0.007 A 
ENDBRANCH 117 118
ENDBRANCH 116 117
END_RES PHE A 126
BEGIN_RES TRP A 131
REMARK  2 active torsions:
REMARK  status: ('A' for Active; 'I' for Inactive)
REMARK   39  A    between atoms: CA   and  CB  
REMARK   40  A    between atoms: CB   and  CG  
ROOT
ATOM    124  CA  TRP A 131      -8.096  -3.335  26.542  1.00 14.52     0.181 C 
ENDROOT
BRANCH 124 125
ATOM    125  CB  TRP A 131      -7.651  -1.877  26.607  1.00 13.06     0.075 C 
BRANCH 125 126
ATOM    126  CG  TRP A 131      -8.049  -1.052  25.403  1.00 16.97    -0.028 A 
ATOM    127  CD2 TRP A 131      -9.146  -0.138  25.322  1.00 11.34    -0.002 A 
ATOM    128  CE2 TRP A 131      -9.143   0.413  24.026  1.00  5.87     0.042 A 
ATOM    129  CE3 TRP A 131     -10.135   0.267  26.226  1.00  3.80     0.014 A 
ATOM    130  CZ2 TRP A 131     -10.089   1.351  23.610  1.00  1.35     0.030 A 
ATOM    131  NE1 TRP A 131      -8.093  -0.141  23.346  1.00 13.90    -0.365 N 
ATOM    132  CH2 TRP A 131     -11.047   1.731  24.518  1.00  1.00     0.002 A 
ATOM    133  CZ3 TRP A 131     -11.076   1.195  25.819  1.00  1.00     0.001 A 
ATOM    134  CD1 TRP A 131      -7.439  -1.019  24.179  1.00 17.22     0.096 A 
ATOM    135  H07 TRP A 131      -7.838   0.062  22.390  1.00 13.90     0.165 HD
ENDBRANCH 125 126
ENDBRANCH 124 125
END_RES TRP A 131
BEGIN_RES LEU A 148
REMARK  2 active torsions:
REMARK  status: ('A' for Active; 'I' for Inactive)
REMARK   41  A    between atoms: CA   and  CB  
REMARK   42  A    between atoms: CB   and  CG  
ROOT
ATOM    136  CA  LEU A 148      -9.018   3.259  29.295  1.00 16.99     0.177 C 
ENDROOT
BRANCH 136 137
ATOM    137  CB  LEU A 148      -8.166   2.574  28.236  1.00  6.39     0.038 C 
BRANCH 137 138
ATOM    138  CG  LEU A 148      -7.591   3.353  27.071  1.00  1.00    -0.020 C 
ATOM    139  CD2 LEU A 148      -8.692   3.845  26.178  1.00  1.00     0.009 C 
ATOM    140  CD1 LEU A 148      -6.651   2.439  26.305  1.00  2.71     0.009 C 
ENDBRANCH 137 138
ENDBRANCH 136 137
END_RES LEU A 148
BEGIN_RES THR A 154
REMARK  2 active torsions:
REMARK  status: ('A' for Active; 'I' for Inactive)
REMARK   43  A    between atoms: CA   and  CB  
REMARK   44  A    between atoms: CB   and  OG1 
ROOT
ATOM    141  CA  THR A 154     -15.990   3.959  24.426  1.00 20.45     0.205 C 
ENDROOT
BRANCH 141 142
ATOM    142  CB  THR A 154     -14.777   4.829  24.694  1.00 16.79     0.146 C 
ATOM    143  CG2 THR A 154     -13.652   4.465  23.744  1.00 20.24     0.042 C 
BRANCH 142 144
ATOM    144  OG1 THR A 154     -15.134   6.201  24.485  1.00 18.84    -0.393 OA
ATOM    145  H06 THR A 154     -15.745   6.482  25.170  1.00 18.84     0.210 HD
ENDBRANCH 142 144
ENDBRANCH 141 142
END_RES THR A 154
BEGIN_RES VAL A 158
REMARK  1 active torsions:
REMARK  status: ('A' for Active; 'I' for Inactive)
REMARK   45  A    between atoms: CA   and  CB  
ROOT
ATOM    146  CA  VAL A 158     -15.487  -0.189  19.892  1.00 15.49     0.180 C 
ENDROOT
BRANCH 146 147
ATOM    147  CB  VAL A 158     -14.291  -0.273  20.822  1.00  6.52     0.009 C 
ATOM    148  CG1 VAL A 158     -13.263  -1.246  20.292  1.00  1.00     0.012 C 
ATOM    149  CG2 VAL A 158     -13.699   1.095  20.967  1.00  5.99     0.012 C 
ENDBRANCH 146 147
END_RES VAL A 158
BEGIN_RES LEU A 161
REMARK  2 active torsions:
REMARK  status: ('A' for Active; 'I' for Inactive)
REMARK   46  A    between atoms: CA   and  CB  
REMARK   47  A    between atoms: CB   and  CG  
ROOT
ATOM    150  CA  LEU A 161     -18.031  -1.858  15.935  1.00 13.31     0.177 C 
ENDROOT
BRANCH 150 151
ATOM    151  CB  LEU A 161     -17.046  -0.706  16.001  1.00 14.13     0.038 C 
BRANCH 151 152
ATOM    152  CG  LEU A 161     -17.422   0.549  15.223  1.00 19.39    -0.020 C 
ATOM    153  CD2 LEU A 161     -18.804   1.013  15.616  1.00 27.75     0.009 C 
ATOM    154  CD1 LEU A 161     -17.381   0.239  13.751  1.00 18.59     0.009 C 
ENDBRANCH 151 152
ENDBRANCH 150 151
END_RES LEU A 161
BEGIN_RES GLN A 168
REMARK  3 active torsions:
REMARK  status: ('A' for Active; 'I' for Inactive)
REMARK   48  A    between atoms: CA   and  CB  
REMARK   49  A    between atoms: CB   and  CG  
REMARK   50  A    between atoms: CG   and  CD  
REMARK       I    between atoms: CD   and  NE2 
ROOT
ATOM    155  CA  GLN A 168     -22.035  -6.020   8.155  1.00 30.94     0.177 C 
ENDROOT
BRANCH 155 156
ATOM    156  CB  GLN A 168     -23.054  -5.218   8.946  1.00 41.76     0.044 C 
BRANCH 156 157
ATOM    157  CG  GLN A 168     -24.471  -5.708   8.816  1.00 61.20     0.105 C 
BRANCH 157 158
ATOM    158  CD  GLN A 168     -25.122  -5.220   7.536  1.00 75.49     0.215 C 
ATOM    159  NE2 GLN A 168     -25.809  -6.128   6.841  1.00 85.00    -0.370 N 
ATOM    160  H06 GLN A 168     -26.264  -5.865   5.978  1.00 85.00     0.159 HD
ATOM    161  H07 GLN A 168     -25.873  -7.079   7.177  1.00 85.00     0.159 HD
ATOM    162  OE1 GLN A 168     -25.008  -4.042   7.170  1.00 73.64    -0.274 OA
ENDBRANCH 157 158
ENDBRANCH 156 157
ENDBRANCH 155 156
END_RES GLN A 168
ENDMDL
MODEL 9
REMARK VINA RESULT:     -11.2      2.342      6.414
REMARK  Name = human_CD1d_CHAPS_pred.rank_0
REMARK  12 active torsions:
REMARK  status: ('A' for Active; 'I' for Inactive)
REMARK    1  A    between atoms: N_2  and  C_14
REMARK    2  A    between atoms: S_4  and  C_23
REMARK    3  A    between atoms: C_5  and  C_8
REMARK    4  A    between atoms: C_5  and  C_24
REMARK    5  A    between atoms: N_6  and  C_18
REMARK    6  A    between atoms: N_6  and  C_21
REMARK    7  A    between atoms: C_8  and  C_10
REMARK    8  A    between atoms: C_10  and  C_12
REMARK    9  A    between atoms: C_14  and  C_16
REMARK   10  A    between atoms: C_16  and  C_18
REMARK   11  A    between atoms: C_21  and  C_22
REMARK   12  A    between atoms: C_22  and  C_23
REMARK                            x       y       z     vdW  Elec       q    Type
REMARK                         _______ _______ _______ _____ _____    ______ ____
ROOT
ATOM      1  O   UNL     1     -14.681  -1.338   8.185  0.00  0.00    +0.000 OA
ATOM      2  O   UNL     1     -12.554  -1.692  13.178  0.00  0.00    +0.000 OA
ATOM      3  O   UNL     1     -10.469   1.921  13.754  0.00  0.00    +0.000 OA
ATOM      4  C   UNL     1     -11.095   1.765  16.634  0.00  0.00    +0.000 C 
ATOM      5  C   UNL     1     -11.695   0.596  17.458  0.00  0.00    +0.000 C 
ATOM      6  C   UNL     1     -12.680  -0.121  16.552  0.00  0.00    +0.000 C 
ATOM      7  C   UNL     1     -12.448   0.485  15.178  0.00  0.00    +0.000 C 
ATOM      8  C   UNL     1     -12.151   1.949  15.500  0.00  0.00    +0.000 C 
ATOM      9  C   UNL     1     -11.676   2.578  14.191  0.00  0.00    +0.000 C 
ATOM     10  C   UNL     1     -12.784   2.472  13.076  0.00  0.00    +0.000 C 
ATOM     11  C   UNL     1     -13.295   1.045  12.839  0.00  0.00    +0.000 C 
ATOM     12  C   UNL     1     -13.575   0.298  14.142  0.00  0.00    +0.000 C 
ATOM     13  C   UNL     1     -13.713  -1.226  13.826  0.00  0.00    +0.000 C 
ATOM     14  C   UNL     1     -14.994  -1.367  12.925  0.00  0.00    +0.000 C 
ATOM     15  C   UNL     1     -15.123  -0.446  11.767  0.00  0.00    +0.000 C 
ATOM     16  C   UNL     1     -14.533   0.987  11.867  0.00  0.00    +0.000 C 
ATOM     17  C   UNL     1     -14.122   1.598  10.496  0.00  0.00    +0.000 C 
ATOM     18  C   UNL     1     -13.894   0.613   9.351  0.00  0.00    +0.000 C 
ATOM     19  C   UNL     1     -14.892  -0.506   9.351  0.00  0.00    +0.000 C 
ATOM     20  C   UNL     1     -14.642  -1.283  10.589  0.00  0.00    +0.000 C 
ATOM     21  C   UNL     1     -15.652   1.805  12.330  0.00  0.00    +0.000 C 
ATOM     22  C   UNL     1     -13.330   2.740  16.052  0.00  0.00    +0.000 C 
ENDROOT
BRANCH   4  24
ATOM     23  C   UNL     1     -11.707   3.104  18.691  0.00  0.00    +0.000 C 
ATOM     24  C   UNL     1     -10.776   2.983  17.514  0.00  0.00    +0.000 C 
BRANCH  24  25
ATOM     25  C   UNL     1     -10.888   4.270  16.621  0.00  0.00    +0.000 C 
BRANCH  25  26
ATOM     26  C   UNL     1      -9.651   5.125  16.813  0.00  0.00    +0.000 C 
BRANCH  26  29
ATOM     27  N   UNL     1     -10.517   6.435  18.707  0.00  0.00    +0.000 NA
ATOM     28  O   UNL     1      -9.992   7.502  16.792  0.00  0.00    +0.000 OA
ATOM     29  C   UNL     1     -10.096   6.464  17.422  0.00  0.00    +0.000 C 
BRANCH  27  30
ATOM     30  C   UNL     1     -10.803   7.728  19.424  0.00  0.00    +0.000 C 
BRANCH  30  31
ATOM     31  C   UNL     1     -11.172   7.500  20.900  0.00  0.00    +0.000 C 
BRANCH  31  32
ATOM     32  C   UNL     1      -9.971   7.477  21.770  0.00  0.00    +0.000 C 
BRANCH  32  33
ATOM     33  N   UNL     1     -10.100   6.451  22.823  0.00  0.00    +0.000 N 
ATOM     34  C   UNL     1     -11.162   6.873  23.713  0.00  0.00    +0.000 C 
ATOM     35  C   UNL     1     -10.407   5.132  22.294  0.00  0.00    +0.000 C 
BRANCH  33  36
ATOM     36  C   UNL     1      -8.803   6.390  23.595  0.00  0.00    +0.000 C 
BRANCH  36  37
ATOM     37  C   UNL     1      -7.547   6.073  22.709  0.00  0.00    +0.000 C 
BRANCH  37  38
ATOM     38  C   UNL     1      -6.813   4.897  23.284  0.00  0.00    +0.000 C 
BRANCH  38  39
ATOM     39  S   UNL     1      -6.508   3.776  22.033  0.00  0.00    +0.000 S 
ATOM     40  O   UNL     1      -7.417   4.048  20.935  0.00  0.00    +0.000 OA
ATOM     41  O   UNL     1      -6.664   2.391  22.506  0.00  0.00    +0.000 OA
ATOM     42  O   UNL     1      -5.109   3.951  21.604  0.00  0.00    +0.000 OA
ENDBRANCH  38  39
ENDBRANCH  37  38
ENDBRANCH  36  37
ENDBRANCH  33  36
ENDBRANCH  32  33
ENDBRANCH  31  32
ENDBRANCH  30  31
ENDBRANCH  27  30
ENDBRANCH  26  29
ENDBRANCH  25  26
ENDBRANCH  24  25
ENDBRANCH   4  24
TORSDOF 12
BEGIN_RES LEU A  10
REMARK  2 active torsions:
REMARK  status: ('A' for Active; 'I' for Inactive)
REMARK    1  A    between atoms: CA   and  CB  
REMARK    2  A    between atoms: CB   and  CG  
ROOT
ATOM      1  CA  LEU A  10     -10.775  -4.871   5.898  1.00 25.14     0.177 C 
ENDROOT
BRANCH   1   2
ATOM      2  CB  LEU A  10     -12.191  -4.387   6.226  1.00 17.87     0.038 C 
BRANCH   2   3
ATOM      3  CG  LEU A  10     -12.660  -3.192   5.393  1.00 24.95    -0.020 C 
ATOM      4  CD2 LEU A  10     -12.135  -1.937   6.004  1.00 26.38     0.009 C 
ATOM      5  CD1 LEU A  10     -14.176  -3.152   5.307  1.00 28.12     0.009 C 
ENDBRANCH   2   3
ENDBRANCH   1   2
END_RES LEU A  10
BEGIN_RES CYS A  12
REMARK  2 active torsions:
REMARK  status: ('A' for Active; 'I' for Inactive)
REMARK    3  A    between atoms: CA   and  CB  
REMARK    4  A    between atoms: CB   and  SG  
ROOT
ATOM      6  CA  CYS A  12      -8.555   0.470   8.750  1.00 23.16     0.185 C 
ENDROOT
BRANCH   6   7
ATOM      7  CB  CYS A  12      -9.828   0.763   9.555  1.00 20.43     0.105 C 
BRANCH   7   8
ATOM      8  SG  CYS A  12     -10.578   2.400   9.298  1.00 24.64    -0.180 SA
ATOM      9  H04 CYS A  12     -11.850   2.253   8.905  1.00 24.64     0.101 HD
ENDBRANCH   7   8
ENDBRANCH   6   7
END_RES CYS A  12
BEGIN_RES GLN A  14
REMARK  3 active torsions:
REMARK  status: ('A' for Active; 'I' for Inactive)
REMARK    5  A    between atoms: CA   and  CB  
REMARK    6  A    between atoms: CB   and  CG  
REMARK    7  A    between atoms: CG   and  CD  
REMARK       I    between atoms: CD   and  NE2 
ROOT
ATOM     10  CA  GLN A  14      -4.645   5.402  11.377  1.00 10.43     0.177 C 
ENDROOT
BRANCH  10  11
ATOM     11  CB  GLN A  14      -5.541   5.549  12.608  1.00 14.45     0.044 C 
BRANCH  11  12
ATOM     12  CG  GLN A  14      -6.465   6.744  12.560  1.00 13.74     0.105 C 
BRANCH  12  13
ATOM     13  CD  GLN A  14      -6.785   7.282  13.934  1.00 16.29     0.215 C 
ATOM     14  NE2 GLN A  14      -8.051   7.265  14.290  1.00  8.57    -0.370 N 
ATOM     15  H06 GLN A  14      -8.325   7.610  15.198  1.00  8.57     0.159 HD
ATOM     16  H07 GLN A  14      -8.749   6.905  13.655  1.00  8.57     0.159 HD
ATOM     17  OE1 GLN A  14      -5.904   7.705  14.666  1.00 23.55    -0.274 OA
ENDBRANCH  12  13
ENDBRANCH  11  12
ENDBRANCH  10  11
END_RES GLN A  14
BEGIN_RES SER A  16
REMARK  2 active torsions:
REMARK  status: ('A' for Active; 'I' for Inactive)
REMARK    8  A    between atoms: CA   and  CB  
REMARK    9  A    between atoms: CB   and  OG  
ROOT
ATOM     18  CA  SER A  16      -1.305  10.019  14.282  1.00  2.34     0.200 C 
ENDROOT
BRANCH  18  19
ATOM     19  CB  SER A  16      -2.242   9.935  15.479  1.00  3.12     0.199 C 
BRANCH  19  20
ATOM     20  OG  SER A  16      -3.461   9.316  15.108  1.00  1.00    -0.398 OA
ATOM     21  H04 SER A  16      -4.141   9.985  15.001  1.00  1.00     0.209 HD
ENDBRANCH  19  20
ENDBRANCH  18  19
END_RES SER A  16
BEGIN_RES LEU A  32
REMARK  2 active torsions:
REMARK  status: ('A' for Active; 'I' for Inactive)
REMARK   10  A    between atoms: CA   and  CB  
REMARK   11  A    between atoms: CB   and  CG  
ROOT
ATOM     22  CA  LEU A  32     -10.272  -4.106   1.587  1.00 16.16     0.177 C 
ENDROOT
BRANCH  22  23
ATOM     23  CB  LEU A  32     -11.613  -3.858   0.880  1.00 12.35     0.038 C 
BRANCH  23  24
ATOM     24  CG  LEU A  32     -12.553  -5.076   0.988  1.00  9.77    -0.020 C 
ATOM     25  CD1 LEU A  32     -13.019  -5.254   2.414  1.00  4.35     0.009 C 
ATOM     26  CD2 LEU A  32     -13.744  -4.917   0.080  1.00 10.60     0.009 C 
ENDBRANCH  23  24
ENDBRANCH  22  23
END_RES LEU A  32
BEGIN_RES HIS A  38
REMARK  2 active torsions:
REMARK  status: ('A' for Active; 'I' for Inactive)
REMARK   12  A    between atoms: CA   and  CB  
REMARK   13  A    between atoms: CB   and  CG  
ROOT
ATOM     27  CA  HIS A  38     -10.959   4.941   1.621  1.00 16.94     0.182 C 
ENDROOT
BRANCH  27  28
ATOM     28  CB  HIS A  38     -11.810   4.840   2.881  1.00 15.47     0.095 C 
BRANCH  28  29
ATOM     29  CG  HIS A  38     -12.988   3.931   2.743  1.00 18.62     0.053 A 
ATOM     30  CD2 HIS A  38     -14.168   4.096   2.098  1.00 15.06     0.116 A 
ATOM     31  NE2 HIS A  38     -14.882   2.937   2.262  1.00 18.12    -0.359 N 
ATOM     32  CE1 HIS A  38     -14.169   2.090   2.981  1.00 14.78     0.207 A 
ATOM     33  H06 HIS A  38     -15.805   2.760   1.893  1.00 18.12     0.166 HD
ATOM     34  ND1 HIS A  38     -13.022   2.665   3.285  1.00 16.58    -0.247 NA
ENDBRANCH  28  29
ENDBRANCH  27  28
END_RES HIS A  38
BEGIN_RES TRP A  63
REMARK  2 active torsions:
REMARK  status: ('A' for Active; 'I' for Inactive)
REMARK   14  A    between atoms: CA   and  CB  
REMARK   15  A    between atoms: CB   and  CG  
ROOT
ATOM     35  CA  TRP A  63     -22.437   6.257   6.543  1.00 27.04     0.181 C 
ENDROOT
BRANCH  35  36
ATOM     36  CB  TRP A  63     -22.360   6.642   5.068  1.00 31.37     0.075 C 
BRANCH  36  37
ATOM     37  CG  TRP A  63     -20.954   6.727   4.512  1.00 34.37    -0.028 A 
ATOM     38  CD2 TRP A  63     -19.897   5.770   4.676  1.00 33.79    -0.002 A 
ATOM     39  CE3 TRP A  63     -19.773   4.570   5.379  1.00 32.99     0.014 A 
ATOM     40  CE2 TRP A  63     -18.795   6.234   3.925  1.00 35.84     0.042 A 
ATOM     41  CZ3 TRP A  63     -18.571   3.880   5.313  1.00 32.93     0.001 A 
ATOM     42  CH2 TRP A  63     -17.492   4.368   4.558  1.00 39.24     0.002 A 
ATOM     43  CZ2 TRP A  63     -17.586   5.541   3.858  1.00 37.99     0.030 A 
ATOM     44  NE1 TRP A  63     -19.168   7.413   3.340  1.00 37.98    -0.365 N 
ATOM     45  H06 TRP A  63     -18.586   7.981   2.740  1.00 37.98     0.165 HD
ATOM     46  CD1 TRP A  63     -20.463   7.699   3.700  1.00 38.16     0.096 A 
ENDBRANCH  36  37
ENDBRANCH  35  36
END_RES TRP A  63
BEGIN_RES LEU A  66
REMARK  2 active torsions:
REMARK  status: ('A' for Active; 'I' for Inactive)
REMARK   16  A    between atoms: CA   and  CB  
REMARK   17  A    between atoms: CB   and  CG  
ROOT
ATOM     47  CA  LEU A  66     -20.004   6.489  11.120  1.00 10.90     0.177 C 
ENDROOT
BRANCH  47  48
ATOM     48  CB  LEU A  66     -19.626   5.453  10.069  1.00 13.57     0.038 C 
BRANCH  48  49
ATOM     49  CG  LEU A  66     -19.123   4.100  10.570  1.00  8.73    -0.020 C 
ATOM     50  CD1 LEU A  66     -18.205   3.466   9.557  1.00 14.23     0.009 C 
ATOM     51  CD2 LEU A  66     -18.390   4.314  11.869  1.00  1.92     0.009 C 
ENDBRANCH  48  49
ENDBRANCH  47  48
END_RES LEU A  66
BEGIN_RES PHE A  70
REMARK  2 active torsions:
REMARK  status: ('A' for Active; 'I' for Inactive)
REMARK   18  A    between atoms: CA   and  CB  
REMARK   19  A    between atoms: CB   and  CG  
ROOT
ATOM     52  CA  PHE A  70     -14.974   9.434  13.165  1.00  8.78     0.180 C 
ENDROOT
BRANCH  52  53
ATOM     53  CB  PHE A  70     -14.707   9.132  11.681  1.00  6.33     0.073 C 
BRANCH  53  54
ATOM     54  CG  PHE A  70     -14.561   7.664  11.386  1.00  3.42    -0.056 A 
ATOM     55  CD1 PHE A  70     -13.547   6.915  11.964  1.00 13.88     0.007 A 
ATOM     56  CE1 PHE A  70     -13.388   5.555  11.648  1.00 12.71     0.001 A 
ATOM     57  CZ  PHE A  70     -14.253   4.938  10.744  1.00  4.21     0.000 A 
ATOM     58  CE2 PHE A  70     -15.269   5.674  10.163  1.00  2.83     0.001 A 
ATOM     59  CD2 PHE A  70     -15.420   7.033  10.486  1.00  1.00     0.007 A 
ENDBRANCH  53  54
ENDBRANCH  52  53
END_RES PHE A  70
BEGIN_RES TYR A  73
REMARK  3 active torsions:
REMARK  status: ('A' for Active; 'I' for Inactive)
REMARK   20  A    between atoms: CA   and  CB  
REMARK   21  A    between atoms: CB   and  CG  
REMARK   22  A    between atoms: CZ   and  OH  
ROOT
ATOM     60  CA  TYR A  73     -13.212  10.166  17.260  1.00 12.17     0.180 C 
ENDROOT
BRANCH  60  61
ATOM     61  CB  TYR A  73     -13.301   8.846  16.517  1.00 12.84     0.073 C 
BRANCH  61  62
ATOM     62  CG  TYR A  73     -13.791   7.728  17.370  1.00 15.89    -0.056 A 
ATOM     63  CD1 TYR A  73     -13.859   6.441  16.885  1.00 16.00     0.010 A 
ATOM     64  CE1 TYR A  73     -14.347   5.398  17.671  1.00 13.55     0.037 A 
ATOM     65  CZ  TYR A  73     -14.769   5.662  18.959  1.00 18.13     0.065 A 
ATOM     66  CE2 TYR A  73     -14.710   6.938  19.468  1.00 15.89     0.037 A 
ATOM     67  CD2 TYR A  73     -14.221   7.965  18.670  1.00 21.86     0.010 A 
BRANCH  65  68
ATOM     68  OH  TYR A  73     -15.247   4.649  19.753  1.00 12.12    -0.361 OA
ATOM     69  H08 TYR A  73     -16.082   4.331  19.400  1.00 12.12     0.217 HD
ENDBRANCH  65  68
ENDBRANCH  61  62
ENDBRANCH  60  61
END_RES TYR A  73
BEGIN_RES PHE A  77
REMARK  2 active torsions:
REMARK  status: ('A' for Active; 'I' for Inactive)
REMARK   23  A    between atoms: CA   and  CB  
REMARK   24  A    between atoms: CB   and  CG  
ROOT
ATOM     70  CA  PHE A  77      -8.400  10.581  20.110  1.00 17.17     0.180 C 
ENDROOT
BRANCH  70  71
ATOM     71  CB  PHE A  77      -8.228   9.750  18.851  1.00 10.44     0.073 C 
BRANCH  71  72
ATOM     72  CG  PHE A  77      -7.014   8.876  18.867  1.00  6.07    -0.056 A 
ATOM     73  CD2 PHE A  77      -7.012   7.693  19.571  1.00  9.61     0.007 A 
ATOM     74  CE2 PHE A  77      -5.889   6.874  19.590  1.00  1.00     0.001 A 
ATOM     75  CZ  PHE A  77      -4.753   7.243  18.891  1.00  1.92     0.000 A 
ATOM     76  CE1 PHE A  77      -4.738   8.422  18.181  1.00  9.25     0.001 A 
ATOM     77  CD1 PHE A  77      -5.871   9.236  18.171  1.00  9.63     0.007 A 
ENDBRANCH  71  72
ENDBRANCH  70  71
END_RES PHE A  77
BEGIN_RES LEU A  96
REMARK  2 active torsions:
REMARK  status: ('A' for Active; 'I' for Inactive)
REMARK   25  A    between atoms: CA   and  CB  
REMARK   26  A    between atoms: CB   and  CG  
ROOT
ATOM     78  CA  LEU A  96       0.717   6.481  17.359  1.00 16.08     0.177 C 
ENDROOT
BRANCH  78  79
ATOM     79  CB  LEU A  96      -0.370   7.101  18.230  1.00 18.83     0.038 C 
BRANCH  79  80
ATOM     80  CG  LEU A  96      -0.818   6.229  19.403  1.00 19.03    -0.020 C 
ATOM     81  CD1 LEU A  96       0.401   5.605  20.041  1.00 28.17     0.009 C 
ATOM     82  CD2 LEU A  96      -1.527   7.066  20.442  1.00 22.01     0.009 C 
ENDBRANCH  79  80
ENDBRANCH  78  79
END_RES LEU A  96
BEGIN_RES VAL A  98
REMARK  1 active torsions:
REMARK  status: ('A' for Active; 'I' for Inactive)
REMARK   27  A    between atoms: CA   and  CB  
ROOT
ATOM     83  CA  VAL A  98      -3.928   2.082  14.897  1.00 19.83     0.180 C 
ENDROOT
BRANCH  83  84
ATOM     84  CB  VAL A  98      -5.203   2.807  15.281  1.00 17.87     0.009 C 
ATOM     85  CG2 VAL A  98      -4.921   4.272  15.491  1.00 29.90     0.012 C 
ATOM     86  CG1 VAL A  98      -5.781   2.186  16.535  1.00 14.79     0.012 C 
ENDBRANCH  83  84
END_RES VAL A  98
BEGIN_RES ASN A 112
REMARK  2 active torsions:
REMARK  status: ('A' for Active; 'I' for Inactive)
REMARK   28  A    between atoms: CA   and  CB  
REMARK   29  A    between atoms: CB   and  CG  
REMARK       I    between atoms: CG   and  ND2 
ROOT
ATOM     87  CA  ASN A 112     -11.790  -8.793  14.069  1.00 37.70     0.185 C 
ENDROOT
BRANCH  87  88
ATOM     88  CB  ASN A 112     -12.992  -7.945  14.465  1.00 26.24     0.137 C 
BRANCH  88  89
ATOM     89  CG  ASN A 112     -13.820  -8.568  15.566  1.00 21.77     0.217 C 
ATOM     90  ND2 ASN A 112     -14.973  -9.124  15.193  1.00  9.31    -0.370 N 
ATOM     91  H04 ASN A 112     -15.572  -9.555  15.883  1.00  9.31     0.159 HD
ATOM     92  H05 ASN A 112     -15.247  -9.113  14.221  1.00  9.31     0.159 HD
ATOM     93  OD1 ASN A 112     -13.434  -8.548  16.741  1.00 21.61    -0.274 OA
ENDBRANCH  88  89
ENDBRANCH  87  88
END_RES ASN A 112
BEGIN_RES PHE A 114
REMARK  2 active torsions:
REMARK  status: ('A' for Active; 'I' for Inactive)
REMARK   30  A    between atoms: CA   and  CB  
REMARK   31  A    between atoms: CB   and  CG  
ROOT
ATOM     94  CA  PHE A 114      -7.754  -3.619  17.012  1.00 26.06     0.180 C 
ENDROOT
BRANCH  94  95
ATOM     95  CB  PHE A 114      -8.890  -3.080  17.867  1.00 19.95     0.073 C 
BRANCH  95  96
ATOM     96  CG  PHE A 114      -8.704  -1.652  18.268  1.00 17.65    -0.056 A 
ATOM     97  CD1 PHE A 114      -8.140  -0.733  17.388  1.00 13.01     0.007 A 
ATOM     98  CE1 PHE A 114      -7.940   0.587  17.769  1.00  6.74     0.001 A 
ATOM     99  CZ  PHE A 114      -8.306   1.008  19.045  1.00  6.27     0.000 A 
ATOM    100  CE2 PHE A 114      -8.869   0.101  19.929  1.00 17.36     0.001 A 
ATOM    101  CD2 PHE A 114      -9.067  -1.227  19.538  1.00 18.39     0.007 A 
ENDBRANCH  95  96
ENDBRANCH  94  95
END_RES PHE A 114
BEGIN_RES VAL A 116
REMARK  1 active torsions:
REMARK  status: ('A' for Active; 'I' for Inactive)
REMARK   32  A    between atoms: CA   and  CB  
ROOT
ATOM    102  CA  VAL A 116      -2.467   0.283  18.565  1.00 13.48     0.180 C 
ENDROOT
BRANCH 102 103
ATOM    103  CB  VAL A 116      -3.101   1.238  19.599  1.00 20.86     0.009 C 
ATOM    104  CG1 VAL A 116      -3.002   2.680  19.092  1.00 25.01     0.012 C 
ATOM    105  CG2 VAL A 116      -4.531   0.846  19.887  1.00 25.34     0.012 C 
ENDBRANCH 102 103
END_RES VAL A 116
BEGIN_RES ILE A 123
REMARK  2 active torsions:
REMARK  status: ('A' for Active; 'I' for Inactive)
REMARK   33  A    between atoms: CA   and  CB  
REMARK   34  A    between atoms: CB   and  CG1 
ROOT
ATOM    106  CA  ILE A 123       1.557  -1.626  23.222  1.00 15.07     0.180 C 
ENDROOT
BRANCH 106 107
ATOM    107  CB  ILE A 123       1.697  -0.112  23.461  1.00 14.41     0.013 C 
ATOM    108  CG2 ILE A 123       3.106   0.210  23.926  1.00 18.35     0.012 C 
BRANCH 107 109
ATOM    109  CG1 ILE A 123       1.374   0.659  22.183  1.00 15.23     0.002 C 
ATOM    110  CD1 ILE A 123       0.254   1.657  22.345  1.00 14.67     0.005 C 
ENDBRANCH 107 109
ENDBRANCH 106 107
END_RES ILE A 123
BEGIN_RES LEU A 124
REMARK  2 active torsions:
REMARK  status: ('A' for Active; 'I' for Inactive)
REMARK   35  A    between atoms: CA   and  CB  
REMARK   36  A    between atoms: CB   and  CG  
ROOT
ATOM    111  CA  LEU A 124      -2.057  -2.686  23.524  1.00 11.86     0.177 C 
ENDROOT
BRANCH 111 112
ATOM    112  CB  LEU A 124      -2.698  -1.652  24.429  1.00 14.60     0.038 C 
BRANCH 112 113
ATOM    113  CG  LEU A 124      -2.609  -0.249  23.847  1.00 16.19    -0.020 C 
ATOM    114  CD1 LEU A 124      -4.018   0.211  23.429  1.00 22.07     0.009 C 
ATOM    115  CD2 LEU A 124      -1.993   0.678  24.864  1.00  9.12     0.009 C 
ENDBRANCH 112 113
ENDBRANCH 111 112
END_RES LEU A 124
BEGIN_RES PHE A 126
REMARK  2 active torsions:
REMARK  status: ('A' for Active; 'I' for Inactive)
REMARK   37  A    between atoms: CA   and  CB  
REMARK   38  A    between atoms: CB   and  CG  
ROOT
ATOM    116  CA  PHE A 126      -8.784  -4.792  22.233  1.00 23.15     0.180 C 
ENDROOT
BRANCH 116 117
ATOM    117  CB  PHE A 126      -9.823  -4.011  21.461  1.00 20.65     0.073 C 
BRANCH 117 118
ATOM    118  CG  PHE A 126     -10.954  -3.550  22.295  1.00 23.65    -0.056 A 
ATOM    119  CD2 PHE A 126     -12.208  -4.120  22.161  1.00 36.63     0.007 A 
ATOM    120  CE2 PHE A 126     -13.278  -3.683  22.953  1.00 36.27     0.001 A 
ATOM    121  CZ  PHE A 126     -13.085  -2.671  23.880  1.00 18.06     0.000 A 
ATOM    122  CE1 PHE A 126     -11.835  -2.101  24.018  1.00  5.50     0.001 A 
ATOM    123  CD1 PHE A 126     -10.774  -2.544  23.228  1.00 15.29     0.007 A 
ENDBRANCH 117 118
ENDBRANCH 116 117
END_RES PHE A 126
BEGIN_RES TRP A 131
REMARK  2 active torsions:
REMARK  status: ('A' for Active; 'I' for Inactive)
REMARK   39  A    between atoms: CA   and  CB  
REMARK   40  A    between atoms: CB   and  CG  
ROOT
ATOM    124  CA  TRP A 131      -8.096  -3.335  26.542  1.00 14.52     0.181 C 
ENDROOT
BRANCH 124 125
ATOM    125  CB  TRP A 131      -7.651  -1.877  26.607  1.00 13.06     0.075 C 
BRANCH 125 126
ATOM    126  CG  TRP A 131      -8.033  -1.056  25.395  1.00 16.97    -0.028 A 
ATOM    127  CD2 TRP A 131      -9.125  -0.139  25.297  1.00 11.34    -0.002 A 
ATOM    128  CE2 TRP A 131      -9.105   0.405  23.998  1.00  5.87     0.042 A 
ATOM    129  CE3 TRP A 131     -10.123   0.274  26.187  1.00  3.80     0.014 A 
ATOM    130  CZ2 TRP A 131     -10.043   1.345  23.567  1.00  1.35     0.030 A 
ATOM    131  NE1 TRP A 131      -8.049  -0.156  23.333  1.00 13.90    -0.365 N 
ATOM    132  CH2 TRP A 131     -11.010   1.733  24.461  1.00  1.00     0.002 A 
ATOM    133  CZ3 TRP A 131     -11.056   1.203  25.765  1.00  1.00     0.001 A 
ATOM    134  CD1 TRP A 131      -7.409  -1.032  24.178  1.00 17.22     0.096 A 
ATOM    135  H07 TRP A 131      -7.784   0.041  22.379  1.00 13.90     0.165 HD
ENDBRANCH 125 126
ENDBRANCH 124 125
END_RES TRP A 131
BEGIN_RES LEU A 148
REMARK  2 active torsions:
REMARK  status: ('A' for Active; 'I' for Inactive)
REMARK   41  A    between atoms: CA   and  CB  
REMARK   42  A    between atoms: CB   and  CG  
ROOT
ATOM    136  CA  LEU A 148      -9.018   3.259  29.295  1.00 16.99     0.177 C 
ENDROOT
BRANCH 136 137
ATOM    137  CB  LEU A 148      -8.166   2.574  28.236  1.00  6.39     0.038 C 
BRANCH 137 138
ATOM    138  CG  LEU A 148      -7.606   3.349  27.061  1.00  1.00    -0.020 C 
ATOM    139  CD2 LEU A 148      -8.719   3.962  26.263  1.00  1.00     0.009 C 
ATOM    140  CD1 LEU A 148      -6.796   2.394  26.203  1.00  2.71     0.009 C 
ENDBRANCH 137 138
ENDBRANCH 136 137
END_RES LEU A 148
BEGIN_RES THR A 154
REMARK  2 active torsions:
REMARK  status: ('A' for Active; 'I' for Inactive)
REMARK   43  A    between atoms: CA   and  CB  
REMARK   44  A    between atoms: CB   and  OG1 
ROOT
ATOM    141  CA  THR A 154     -15.990   3.959  24.426  1.00 20.45     0.205 C 
ENDROOT
BRANCH 141 142
ATOM    142  CB  THR A 154     -14.777   4.829  24.694  1.00 16.79     0.146 C 
ATOM    143  CG2 THR A 154     -13.608   4.375  23.840  1.00 20.24     0.042 C 
BRANCH 142 144
ATOM    144  OG1 THR A 154     -15.095   6.186  24.359  1.00 18.84    -0.393 OA
ATOM    145  H06 THR A 154     -15.918   6.437  24.786  1.00 18.84     0.210 HD
ENDBRANCH 142 144
ENDBRANCH 141 142
END_RES THR A 154
BEGIN_RES VAL A 158
REMARK  1 active torsions:
REMARK  status: ('A' for Active; 'I' for Inactive)
REMARK   45  A    between atoms: CA   and  CB  
ROOT
ATOM    146  CA  VAL A 158     -15.487  -0.189  19.892  1.00 15.49     0.180 C 
ENDROOT
BRANCH 146 147
ATOM    147  CB  VAL A 158     -14.291  -0.273  20.822  1.00  6.52     0.009 C 
ATOM    148  CG1 VAL A 158     -13.260  -1.241  20.289  1.00  1.00     0.012 C 
ATOM    149  CG2 VAL A 158     -13.703   1.096  20.973  1.00  5.99     0.012 C 
ENDBRANCH 146 147
END_RES VAL A 158
BEGIN_RES LEU A 161
REMARK  2 active torsions:
REMARK  status: ('A' for Active; 'I' for Inactive)
REMARK   46  A    between atoms: CA   and  CB  
REMARK   47  A    between atoms: CB   and  CG  
ROOT
ATOM    150  CA  LEU A 161     -18.031  -1.858  15.935  1.00 13.31     0.177 C 
ENDROOT
BRANCH 150 151
ATOM    151  CB  LEU A 161     -17.046  -0.706  16.001  1.00 14.13     0.038 C 
BRANCH 151 152
ATOM    152  CG  LEU A 161     -17.436   0.559  15.247  1.00 19.39    -0.020 C 
ATOM    153  CD2 LEU A 161     -16.787   1.766  15.881  1.00 27.75     0.009 C 
ATOM    154  CD1 LEU A 161     -18.934   0.703  15.279  1.00 18.59     0.009 C 
ENDBRANCH 151 152
ENDBRANCH 150 151
END_RES LEU A 161
BEGIN_RES GLN A 168
REMARK  3 active torsions:
REMARK  status: ('A' for Active; 'I' for Inactive)
REMARK   48  A    between atoms: CA   and  CB  
REMARK   49  A    between atoms: CB   and  CG  
REMARK   50  A    between atoms: CG   and  CD  
REMARK       I    between atoms: CD   and  NE2 
ROOT
ATOM    155  CA  GLN A 168     -22.035  -6.020   8.155  1.00 30.94     0.177 C 
ENDROOT
BRANCH 155 156
ATOM    156  CB  GLN A 168     -23.054  -5.218   8.946  1.00 41.76     0.044 C 
BRANCH 156 157
ATOM    157  CG  GLN A 168     -24.452  -5.772   8.904  1.00 61.20     0.105 C 
BRANCH 157 158
ATOM    158  CD  GLN A 168     -25.012  -5.787   7.495  1.00 75.49     0.215 C 
ATOM    159  NE2 GLN A 168     -25.318  -6.986   6.995  1.00 85.00    -0.370 N 
ATOM    160  H06 GLN A 168     -25.693  -7.063   6.060  1.00 85.00     0.159 HD
ATOM    161  H07 GLN A 168     -25.175  -7.817   7.552  1.00 85.00     0.159 HD
ATOM    162  OE1 GLN A 168     -25.164  -4.737   6.856  1.00 73.64    -0.274 OA
ENDBRANCH 157 158
ENDBRANCH 156 157
ENDBRANCH 155 156
END_RES GLN A 168
ENDMDL
