REMARK  Name = human_CD1d_DDM_pred.rank_0
REMARK  16 active torsions:
REMARK  status: ('A' for Active; 'I' for Inactive)
REMARK    1  A    between atoms: O_2  and  C_23
REMARK    2  A    between atoms: O_2  and  C_24
REMARK    3  A    between atoms: C_3  and  C_5
REMARK    4  A    between atoms: C_5  and  C_7
REMARK    5  A    between atoms: C_7  and  C_9
REMARK    6  A    between atoms: O_8  and  C_27
REMARK    7  A    between atoms: O_8  and  C_30
REMARK    8  A    between atoms: C_9  and  C_11
REMARK    9  A    between atoms: C_11  and  C_13
REMARK   10  A    between atoms: C_13  and  C_15
REMARK   11  A    between atoms: C_15  and  C_17
REMARK   12  A    between atoms: C_17  and  C_19
REMARK   13  A    between atoms: C_19  and  C_21
REMARK   14  A    between atoms: C_21  and  C_23
REMARK   15  A    between atoms: C_28  and  C_29
REMARK   16  A    between atoms: C_34  and  C_35
REMARK                            x       y       z     vdW  Elec       q    Type
REMARK                         _______ _______ _______ _____ _____    ______ ____
ROOT
ATOM      1  O   UNL     1       2.536  22.556  12.653  0.00  0.00    +0.000 OA
ATOM      2  O   UNL     1       6.643  23.006  12.263  0.00  0.00    +0.000 OA
ATOM      3  O   UNL     1       5.352  20.602  11.456  0.00  0.00    +0.000 OA
ATOM      4  C   UNL     1       3.235  21.401  12.257  0.00  0.00    +0.000 C 
ATOM      5  C   UNL     1       4.628  21.776  11.716  0.00  0.00    +0.000 C 
ATOM      6  C   UNL     1       5.387  22.629  12.764  0.00  0.00    +0.000 C 
ATOM      7  C   UNL     1       4.526  23.844  13.099  0.00  0.00    +0.000 C 
ATOM      8  C   UNL     1       3.283  23.231  13.760  0.00  0.00    +0.000 C 
ENDROOT
BRANCH   8  10
ATOM      9  O   UNL     1       1.518  23.369  15.293  0.00  0.00    +0.000 OA
ATOM     10  C   UNL     1       2.312  24.196  14.377  0.00  0.00    +0.000 C 
ENDBRANCH   8  10
BRANCH   7  11
ATOM     11  O   UNL     1       5.154  24.860  13.845  0.00  0.00    +0.000 OA
BRANCH  11  16
ATOM     12  O   UNL     1       7.322  25.242  14.661  0.00  0.00    +0.000 OA
ATOM     13  O   UNL     1       6.108  28.682  15.167  0.00  0.00    +0.000 OA
ATOM     14  O   UNL     1       4.701  27.182  17.165  0.00  0.00    +0.000 OA
ATOM     15  O   UNL     1       4.339  24.446  16.659  0.00  0.00    +0.000 OA
ATOM     16  C   UNL     1       6.076  24.579  14.933  0.00  0.00    +0.000 C 
ATOM     17  C   UNL     1       5.531  25.120  16.262  0.00  0.00    +0.000 C 
ATOM     18  C   UNL     1       5.184  26.597  15.987  0.00  0.00    +0.000 C 
ATOM     19  C   UNL     1       6.479  27.342  15.526  0.00  0.00    +0.000 C 
ATOM     20  C   UNL     1       7.114  26.645  14.317  0.00  0.00    +0.000 C 
BRANCH  20  22
ATOM     21  O   UNL     1       9.258  27.130  15.130  0.00  0.00    +0.000 OA
ATOM     22  C   UNL     1       8.460  27.211  13.988  0.00  0.00    +0.000 C 
ENDBRANCH  20  22
ENDBRANCH  11  16
ENDBRANCH   7  11
BRANCH   4  23
ATOM     23  O   UNL     1       2.506  20.772  11.250  0.00  0.00    +0.000 OA
BRANCH  23  24
ATOM     24  C   UNL     1       1.334  20.131  11.761  0.00  0.00    +0.000 C 
BRANCH  24  25
ATOM     25  C   UNL     1       0.077  20.923  11.349  0.00  0.00    +0.000 C 
BRANCH  25  26
ATOM     26  C   UNL     1      -0.126  20.786   9.841  0.00  0.00    +0.000 C 
BRANCH  26  27
ATOM     27  C   UNL     1      -0.863  19.465   9.521  0.00  0.00    +0.000 C 
BRANCH  27  28
ATOM     28  C   UNL     1      -2.362  19.676   9.429  0.00  0.00    +0.000 C 
BRANCH  28  29
ATOM     29  C   UNL     1      -3.032  19.175  10.697  0.00  0.00    +0.000 C 
BRANCH  29  30
ATOM     30  C   UNL     1      -4.518  19.393  10.640  0.00  0.00    +0.000 C 
BRANCH  30  31
ATOM     31  C   UNL     1      -5.163  18.801  11.838  0.00  0.00    +0.000 C 
BRANCH  31  32
ATOM     32  C   UNL     1      -6.657  18.685  11.677  0.00  0.00    +0.000 C 
BRANCH  32  33
ATOM     33  C   UNL     1      -7.289  18.355  13.018  0.00  0.00    +0.000 C 
BRANCH  33  35
ATOM     34  C   UNL     1      -9.224  17.305  14.147  0.00  0.00    +0.000 C 
ATOM     35  C   UNL     1      -8.704  17.892  12.857  0.00  0.00    +0.000 C 
ENDBRANCH  33  35
ENDBRANCH  32  33
ENDBRANCH  31  32
ENDBRANCH  30  31
ENDBRANCH  29  30
ENDBRANCH  28  29
ENDBRANCH  27  28
ENDBRANCH  26  27
ENDBRANCH  25  26
ENDBRANCH  24  25
ENDBRANCH  23  24
ENDBRANCH   4  23
TORSDOF 16
