MODEL 1
REMARK VINA RESULT:      -9.7      0.000      0.000
REMARK  Name = human_CD1d_DDM_pred.rank_0
REMARK  16 active torsions:
REMARK  status: ('A' for Active; 'I' for Inactive)
REMARK    1  A    between atoms: O_2  and  C_23
REMARK    2  A    between atoms: O_2  and  C_24
REMARK    3  A    between atoms: C_3  and  C_5
REMARK    4  A    between atoms: C_5  and  C_7
REMARK    5  A    between atoms: C_7  and  C_9
REMARK    6  A    between atoms: O_8  and  C_27
REMARK    7  A    between atoms: O_8  and  C_30
REMARK    8  A    between atoms: C_9  and  C_11
REMARK    9  A    between atoms: C_11  and  C_13
REMARK   10  A    between atoms: C_13  and  C_15
REMARK   11  A    between atoms: C_15  and  C_17
REMARK   12  A    between atoms: C_17  and  C_19
REMARK   13  A    between atoms: C_19  and  C_21
REMARK   14  A    between atoms: C_21  and  C_23
REMARK   15  A    between atoms: C_28  and  C_29
REMARK   16  A    between atoms: C_34  and  C_35
REMARK                            x       y       z     vdW  Elec       q    Type
REMARK                         _______ _______ _______ _____ _____    ______ ____
ROOT
ATOM      1  O   UNL     1     -11.318   1.685  12.186  0.00  0.00    +0.000 OA
ATOM      2  O   UNL     1     -12.850   2.630  15.925  0.00  0.00    +0.000 OA
ATOM      3  O   UNL     1     -14.393   1.155  14.043  0.00  0.00    +0.000 OA
ATOM      4  C   UNL     1     -12.676   1.371  12.379  0.00  0.00    +0.000 C 
ATOM      5  C   UNL     1     -13.010   1.336  13.883  0.00  0.00    +0.000 C 
ATOM      6  C   UNL     1     -12.583   2.669  14.548  0.00  0.00    +0.000 C 
ATOM      7  C   UNL     1     -11.098   2.883  14.267  0.00  0.00    +0.000 C 
ATOM      8  C   UNL     1     -11.041   3.046  12.741  0.00  0.00    +0.000 C 
ENDROOT
BRANCH   8  10
ATOM      9  O   UNL     1     -10.038   4.633  11.341  0.00  0.00    +0.000 OA
ATOM     10  C   UNL     1      -9.719   3.460  12.164  0.00  0.00    +0.000 C 
ENDBRANCH   8  10
BRANCH   7  11
ATOM     11  O   UNL     1     -10.474   3.913  14.997  0.00  0.00    +0.000 OA
BRANCH  11  16
ATOM     12  O   UNL     1     -10.768   4.965  17.075  0.00  0.00    +0.000 OA
ATOM     13  O   UNL     1      -7.437   6.381  16.395  0.00  0.00    +0.000 OA
ATOM     14  O   UNL     1      -9.129   7.731  14.513  0.00  0.00    +0.000 OA
ATOM     15  O   UNL     1     -11.488   6.407  13.770  0.00  0.00    +0.000 OA
ATOM     16  C   UNL     1     -11.222   4.934  15.712  0.00  0.00    +0.000 C 
ATOM     17  C   UNL     1     -10.978   6.319  15.098  0.00  0.00    +0.000 C 
ATOM     18  C   UNL     1      -9.445   6.472  15.040  0.00  0.00    +0.000 C 
ATOM     19  C   UNL     1      -8.870   6.351  16.489  0.00  0.00    +0.000 C 
ATOM     20  C   UNL     1      -9.312   5.040  17.149  0.00  0.00    +0.000 C 
BRANCH  20  22
ATOM     21  O   UNL     1      -7.927   4.065  18.768  0.00  0.00    +0.000 OA
ATOM     22  C   UNL     1      -8.953   4.996  18.601  0.00  0.00    +0.000 C 
ENDBRANCH  20  22
ENDBRANCH  11  16
ENDBRANCH   7  11
BRANCH   4  23
ATOM     23  O   UNL     1     -12.918   0.115  11.826  0.00  0.00    +0.000 OA
BRANCH  23  24
ATOM     24  C   UNL     1     -13.866   0.177  10.757  0.00  0.00    +0.000 C 
BRANCH  24  25
ATOM     25  C   UNL     1     -14.997  -0.844  10.994  0.00  0.00    +0.000 C 
BRANCH  25  26
ATOM     26  C   UNL     1     -16.078  -0.644   9.933  0.00  0.00    +0.000 C 
BRANCH  26  27
ATOM     27  C   UNL     1     -16.808   0.699  10.162  0.00  0.00    +0.000 C 
BRANCH  27  28
ATOM     28  C   UNL     1     -17.968   0.871   9.200  0.00  0.00    +0.000 C 
BRANCH  28  29
ATOM     29  C   UNL     1     -17.605   1.887   8.131  0.00  0.00    +0.000 C 
BRANCH  29  30
ATOM     30  C   UNL     1     -16.337   2.611   8.488  0.00  0.00    +0.000 C 
BRANCH  30  31
ATOM     31  C   UNL     1     -15.628   3.029   7.253  0.00  0.00    +0.000 C 
BRANCH  31  32
ATOM     32  C   UNL     1     -15.253   4.488   7.283  0.00  0.00    +0.000 C 
BRANCH  32  33
ATOM     33  C   UNL     1     -16.055   5.198   8.359  0.00  0.00    +0.000 C 
BRANCH  33  35
ATOM     34  C   UNL     1     -17.620   6.793   7.298  0.00  0.00    +0.000 C 
ATOM     35  C   UNL     1     -16.297   6.633   8.006  0.00  0.00    +0.000 C 
ENDBRANCH  33  35
ENDBRANCH  32  33
ENDBRANCH  31  32
ENDBRANCH  30  31
ENDBRANCH  29  30
ENDBRANCH  28  29
ENDBRANCH  27  28
ENDBRANCH  26  27
ENDBRANCH  25  26
ENDBRANCH  24  25
ENDBRANCH  23  24
ENDBRANCH   4  23
TORSDOF 16
BEGIN_RES LEU A  10
REMARK  2 active torsions:
REMARK  status: ('A' for Active; 'I' for Inactive)
REMARK    1  A    between atoms: CA   and  CB  
REMARK    2  A    between atoms: CB   and  CG  
ROOT
ATOM      1  CA  LEU A  10     -10.775  -4.871   5.898  1.00 25.14     0.177 C 
ENDROOT
BRANCH   1   2
ATOM      2  CB  LEU A  10     -12.191  -4.387   6.226  1.00 17.87     0.038 C 
BRANCH   2   3
ATOM      3  CG  LEU A  10     -12.357  -2.866   6.220  1.00 24.95    -0.020 C 
ATOM      4  CD2 LEU A  10     -13.592  -2.508   6.976  1.00 26.38     0.009 C 
ATOM      5  CD1 LEU A  10     -12.426  -2.333   4.799  1.00 28.12     0.009 C 
ENDBRANCH   2   3
ENDBRANCH   1   2
END_RES LEU A  10
BEGIN_RES CYS A  12
REMARK  2 active torsions:
REMARK  status: ('A' for Active; 'I' for Inactive)
REMARK    3  A    between atoms: CA   and  CB  
REMARK    4  A    between atoms: CB   and  SG  
ROOT
ATOM      6  CA  CYS A  12      -8.555   0.470   8.750  1.00 23.16     0.185 C 
ENDROOT
BRANCH   6   7
ATOM      7  CB  CYS A  12      -9.828   0.763   9.555  1.00 20.43     0.105 C 
BRANCH   7   8
ATOM      8  SG  CYS A  12     -11.013   1.911   8.788  1.00 24.64    -0.180 SA
ATOM      9  H04 CYS A  12     -11.292   2.903   9.644  1.00 24.64     0.101 HD
ENDBRANCH   7   8
ENDBRANCH   6   7
END_RES CYS A  12
BEGIN_RES GLN A  14
REMARK  3 active torsions:
REMARK  status: ('A' for Active; 'I' for Inactive)
REMARK    5  A    between atoms: CA   and  CB  
REMARK    6  A    between atoms: CB   and  CG  
REMARK    7  A    between atoms: CG   and  CD  
REMARK       I    between atoms: CD   and  NE2 
ROOT
ATOM     10  CA  GLN A  14      -4.645   5.402  11.377  1.00 10.43     0.177 C 
ENDROOT
BRANCH  10  11
ATOM     11  CB  GLN A  14      -5.541   5.549  12.608  1.00 14.45     0.044 C 
BRANCH  11  12
ATOM     12  CG  GLN A  14      -6.480   6.732  12.550  1.00 13.74     0.105 C 
BRANCH  12  13
ATOM     13  CD  GLN A  14      -5.873   7.980  13.145  1.00 16.29     0.215 C 
ATOM     14  NE2 GLN A  14      -6.164   8.231  14.403  1.00  8.57    -0.370 N 
ATOM     15  H06 GLN A  14      -5.785   9.051  14.855  1.00  8.57     0.159 HD
ATOM     16  H07 GLN A  14      -6.765   7.603  14.918  1.00  8.57     0.159 HD
ATOM     17  OE1 GLN A  14      -5.151   8.707  12.482  1.00 23.55    -0.274 OA
ENDBRANCH  12  13
ENDBRANCH  11  12
ENDBRANCH  10  11
END_RES GLN A  14
BEGIN_RES SER A  16
REMARK  2 active torsions:
REMARK  status: ('A' for Active; 'I' for Inactive)
REMARK    8  A    between atoms: CA   and  CB  
REMARK    9  A    between atoms: CB   and  OG  
ROOT
ATOM     18  CA  SER A  16      -1.305  10.019  14.282  1.00  2.34     0.200 C 
ENDROOT
BRANCH  18  19
ATOM     19  CB  SER A  16      -2.242   9.935  15.479  1.00  3.12     0.199 C 
BRANCH  19  20
ATOM     20  OG  SER A  16      -3.481   9.365  15.096  1.00  1.00    -0.398 OA
ATOM     21  H04 SER A  16      -3.358   8.433  14.899  1.00  1.00     0.209 HD
ENDBRANCH  19  20
ENDBRANCH  18  19
END_RES SER A  16
BEGIN_RES LEU A  32
REMARK  2 active torsions:
REMARK  status: ('A' for Active; 'I' for Inactive)
REMARK   10  A    between atoms: CA   and  CB  
REMARK   11  A    between atoms: CB   and  CG  
ROOT
ATOM     22  CA  LEU A  32     -10.272  -4.106   1.587  1.00 16.16     0.177 C 
ENDROOT
BRANCH  22  23
ATOM     23  CB  LEU A  32     -11.613  -3.858   0.880  1.00 12.35     0.038 C 
BRANCH  23  24
ATOM     24  CG  LEU A  32     -12.662  -4.928   1.246  1.00  9.77    -0.020 C 
ATOM     25  CD1 LEU A  32     -12.372  -6.218   0.515  1.00  4.35     0.009 C 
ATOM     26  CD2 LEU A  32     -12.679  -5.178   2.731  1.00 10.60     0.009 C 
ENDBRANCH  23  24
ENDBRANCH  22  23
END_RES LEU A  32
BEGIN_RES HIS A  38
REMARK  2 active torsions:
REMARK  status: ('A' for Active; 'I' for Inactive)
REMARK   12  A    between atoms: CA   and  CB  
REMARK   13  A    between atoms: CB   and  CG  
ROOT
ATOM     27  CA  HIS A  38     -10.959   4.941   1.621  1.00 16.94     0.182 C 
ENDROOT
BRANCH  27  28
ATOM     28  CB  HIS A  38     -11.810   4.840   2.881  1.00 15.47     0.095 C 
BRANCH  28  29
ATOM     29  CG  HIS A  38     -12.990   3.934   2.741  1.00 18.62     0.053 A 
ATOM     30  CD2 HIS A  38     -14.152   4.086   2.062  1.00 15.06     0.116 A 
ATOM     31  NE2 HIS A  38     -14.878   2.937   2.244  1.00 18.12    -0.359 N 
ATOM     32  CE1 HIS A  38     -14.190   2.109   3.008  1.00 14.78     0.207 A 
ATOM     33  H06 HIS A  38     -15.792   2.754   1.856  1.00 18.12     0.166 HD
ATOM     34  ND1 HIS A  38     -13.048   2.686   3.323  1.00 16.58    -0.247 NA
ENDBRANCH  28  29
ENDBRANCH  27  28
END_RES HIS A  38
BEGIN_RES TRP A  63
REMARK  2 active torsions:
REMARK  status: ('A' for Active; 'I' for Inactive)
REMARK   14  A    between atoms: CA   and  CB  
REMARK   15  A    between atoms: CB   and  CG  
ROOT
ATOM     35  CA  TRP A  63     -22.437   6.257   6.543  1.00 27.04     0.181 C 
ENDROOT
BRANCH  35  36
ATOM     36  CB  TRP A  63     -22.360   6.642   5.068  1.00 31.37     0.075 C 
BRANCH  36  37
ATOM     37  CG  TRP A  63     -20.953   6.758   4.521  1.00 34.37    -0.028 A 
ATOM     38  CD2 TRP A  63     -19.903   5.785   4.614  1.00 33.79    -0.002 A 
ATOM     39  CE3 TRP A  63     -19.787   4.535   5.227  1.00 32.99     0.014 A 
ATOM     40  CE2 TRP A  63     -18.797   6.296   3.900  1.00 35.84     0.042 A 
ATOM     41  CZ3 TRP A  63     -18.589   3.844   5.111  1.00 32.93     0.001 A 
ATOM     42  CH2 TRP A  63     -17.507   4.379   4.395  1.00 39.24     0.002 A 
ATOM     43  CZ2 TRP A  63     -17.592   5.601   3.782  1.00 37.99     0.030 A 
ATOM     44  NE1 TRP A  63     -19.161   7.516   3.402  1.00 37.98    -0.365 N 
ATOM     45  H06 TRP A  63     -18.575   8.122   2.846  1.00 37.98     0.165 HD
ATOM     46  CD1 TRP A  63     -20.454   7.784   3.782  1.00 38.16     0.096 A 
ENDBRANCH  36  37
ENDBRANCH  35  36
END_RES TRP A  63
BEGIN_RES LEU A  66
REMARK  2 active torsions:
REMARK  status: ('A' for Active; 'I' for Inactive)
REMARK   16  A    between atoms: CA   and  CB  
REMARK   17  A    between atoms: CB   and  CG  
ROOT
ATOM     47  CA  LEU A  66     -20.004   6.489  11.120  1.00 10.90     0.177 C 
ENDROOT
BRANCH  47  48
ATOM     48  CB  LEU A  66     -19.626   5.453  10.069  1.00 13.57     0.038 C 
BRANCH  48  49
ATOM     49  CG  LEU A  66     -19.065   4.122  10.569  1.00  8.73    -0.020 C 
ATOM     50  CD1 LEU A  66     -17.909   4.352  11.507  1.00 14.23     0.009 C 
ATOM     51  CD2 LEU A  66     -20.166   3.376  11.277  1.00  1.92     0.009 C 
ENDBRANCH  48  49
ENDBRANCH  47  48
END_RES LEU A  66
BEGIN_RES PHE A  70
REMARK  2 active torsions:
REMARK  status: ('A' for Active; 'I' for Inactive)
REMARK   18  A    between atoms: CA   and  CB  
REMARK   19  A    between atoms: CB   and  CG  
ROOT
ATOM     52  CA  PHE A  70     -14.974   9.434  13.165  1.00  8.78     0.180 C 
ENDROOT
BRANCH  52  53
ATOM     53  CB  PHE A  70     -14.707   9.132  11.681  1.00  6.33     0.073 C 
BRANCH  53  54
ATOM     54  CG  PHE A  70     -14.260   7.718  11.429  1.00  3.42    -0.056 A 
ATOM     55  CD1 PHE A  70     -13.464   7.402  10.339  1.00 13.88     0.007 A 
ATOM     56  CE1 PHE A  70     -13.089   6.071  10.083  1.00 12.71     0.001 A 
ATOM     57  CZ  PHE A  70     -13.516   5.047  10.929  1.00  4.21     0.000 A 
ATOM     58  CE2 PHE A  70     -14.308   5.350  12.021  1.00  2.83     0.001 A 
ATOM     59  CD2 PHE A  70     -14.677   6.683  12.268  1.00  1.00     0.007 A 
ENDBRANCH  53  54
ENDBRANCH  52  53
END_RES PHE A  70
BEGIN_RES TYR A  73
REMARK  3 active torsions:
REMARK  status: ('A' for Active; 'I' for Inactive)
REMARK   20  A    between atoms: CA   and  CB  
REMARK   21  A    between atoms: CB   and  CG  
REMARK   22  A    between atoms: CZ   and  OH  
ROOT
ATOM     60  CA  TYR A  73     -13.212  10.166  17.260  1.00 12.17     0.180 C 
ENDROOT
BRANCH  60  61
ATOM     61  CB  TYR A  73     -13.301   8.846  16.517  1.00 12.84     0.073 C 
BRANCH  61  62
ATOM     62  CG  TYR A  73     -13.387   7.670  17.425  1.00 15.89    -0.056 A 
ATOM     63  CD1 TYR A  73     -14.180   6.587  17.114  1.00 16.00     0.010 A 
ATOM     64  CE1 TYR A  73     -14.286   5.498  17.978  1.00 13.55     0.037 A 
ATOM     65  CZ  TYR A  73     -13.585   5.506  19.167  1.00 18.13     0.065 A 
ATOM     66  CE2 TYR A  73     -12.785   6.574  19.501  1.00 15.89     0.037 A 
ATOM     67  CD2 TYR A  73     -12.690   7.651  18.628  1.00 21.86     0.010 A 
BRANCH  65  68
ATOM     68  OH  TYR A  73     -13.670   4.441  20.030  1.00 12.12    -0.361 OA
ATOM     69  H08 TYR A  73     -12.792   4.215  20.348  1.00 12.12     0.217 HD
ENDBRANCH  65  68
ENDBRANCH  61  62
ENDBRANCH  60  61
END_RES TYR A  73
BEGIN_RES PHE A  77
REMARK  2 active torsions:
REMARK  status: ('A' for Active; 'I' for Inactive)
REMARK   23  A    between atoms: CA   and  CB  
REMARK   24  A    between atoms: CB   and  CG  
ROOT
ATOM     70  CA  PHE A  77      -8.400  10.581  20.110  1.00 17.17     0.180 C 
ENDROOT
BRANCH  70  71
ATOM     71  CB  PHE A  77      -8.228   9.750  18.851  1.00 10.44     0.073 C 
BRANCH  71  72
ATOM     72  CG  PHE A  77      -7.050   8.828  18.893  1.00  6.07    -0.056 A 
ATOM     73  CD2 PHE A  77      -5.971   9.034  18.064  1.00  9.61     0.007 A 
ATOM     74  CE2 PHE A  77      -4.871   8.184  18.098  1.00  1.00     0.001 A 
ATOM     75  CZ  PHE A  77      -4.851   7.114  18.977  1.00  1.92     0.000 A 
ATOM     76  CE1 PHE A  77      -5.922   6.896  19.814  1.00  9.25     0.001 A 
ATOM     77  CD1 PHE A  77      -7.019   7.755  19.769  1.00  9.63     0.007 A 
ENDBRANCH  71  72
ENDBRANCH  70  71
END_RES PHE A  77
BEGIN_RES LEU A  96
REMARK  2 active torsions:
REMARK  status: ('A' for Active; 'I' for Inactive)
REMARK   25  A    between atoms: CA   and  CB  
REMARK   26  A    between atoms: CB   and  CG  
ROOT
ATOM     78  CA  LEU A  96       0.717   6.481  17.359  1.00 16.08     0.177 C 
ENDROOT
BRANCH  78  79
ATOM     79  CB  LEU A  96      -0.370   7.101  18.230  1.00 18.83     0.038 C 
BRANCH  79  80
ATOM     80  CG  LEU A  96      -0.157   6.924  19.733  1.00 19.03    -0.020 C 
ATOM     81  CD1 LEU A  96      -1.398   7.388  20.460  1.00 28.17     0.009 C 
ATOM     82  CD2 LEU A  96       0.076   5.469  20.065  1.00 22.01     0.009 C 
ENDBRANCH  79  80
ENDBRANCH  78  79
END_RES LEU A  96
BEGIN_RES VAL A  98
REMARK  1 active torsions:
REMARK  status: ('A' for Active; 'I' for Inactive)
REMARK   27  A    between atoms: CA   and  CB  
ROOT
ATOM     83  CA  VAL A  98      -3.928   2.082  14.897  1.00 19.83     0.180 C 
ENDROOT
BRANCH  83  84
ATOM     84  CB  VAL A  98      -5.203   2.807  15.281  1.00 17.87     0.009 C 
ATOM     85  CG2 VAL A  98      -4.922   4.273  15.489  1.00 29.90     0.012 C 
ATOM     86  CG1 VAL A  98      -5.780   2.187  16.536  1.00 14.79     0.012 C 
ENDBRANCH  83  84
END_RES VAL A  98
BEGIN_RES ASN A 112
REMARK  2 active torsions:
REMARK  status: ('A' for Active; 'I' for Inactive)
REMARK   28  A    between atoms: CA   and  CB  
REMARK   29  A    between atoms: CB   and  CG  
REMARK       I    between atoms: CG   and  ND2 
ROOT
ATOM     87  CA  ASN A 112     -11.790  -8.793  14.069  1.00 37.70     0.185 C 
ENDROOT
BRANCH  87  88
ATOM     88  CB  ASN A 112     -12.992  -7.945  14.465  1.00 26.24     0.137 C 
BRANCH  88  89
ATOM     89  CG  ASN A 112     -13.826  -8.574  15.558  1.00 21.77     0.217 C 
ATOM     90  ND2 ASN A 112     -14.982  -9.118  15.177  1.00  9.31    -0.370 N 
ATOM     91  H04 ASN A 112     -15.585  -9.552  15.861  1.00  9.31     0.159 HD
ATOM     92  H05 ASN A 112     -15.253  -9.097  14.204  1.00  9.31     0.159 HD
ATOM     93  OD1 ASN A 112     -13.443  -8.568  16.734  1.00 21.61    -0.274 OA
ENDBRANCH  88  89
ENDBRANCH  87  88
END_RES ASN A 112
BEGIN_RES PHE A 114
REMARK  2 active torsions:
REMARK  status: ('A' for Active; 'I' for Inactive)
REMARK   30  A    between atoms: CA   and  CB  
REMARK   31  A    between atoms: CB   and  CG  
ROOT
ATOM     94  CA  PHE A 114      -7.754  -3.619  17.012  1.00 26.06     0.180 C 
ENDROOT
BRANCH  94  95
ATOM     95  CB  PHE A 114      -8.890  -3.080  17.867  1.00 19.95     0.073 C 
BRANCH  95  96
ATOM     96  CG  PHE A 114      -9.177  -1.633  17.627  1.00 17.65    -0.056 A 
ATOM     97  CD1 PHE A 114     -10.487  -1.177  17.503  1.00 13.01     0.007 A 
ATOM     98  CE1 PHE A 114     -10.753   0.162  17.251  1.00  6.74     0.001 A 
ATOM     99  CZ  PHE A 114      -9.706   1.069  17.121  1.00  6.27     0.000 A 
ATOM    100  CE2 PHE A 114      -8.398   0.627  17.243  1.00 17.36     0.001 A 
ATOM    101  CD2 PHE A 114      -8.137  -0.724  17.496  1.00 18.39     0.007 A 
ENDBRANCH  95  96
ENDBRANCH  94  95
END_RES PHE A 114
BEGIN_RES VAL A 116
REMARK  1 active torsions:
REMARK  status: ('A' for Active; 'I' for Inactive)
REMARK   32  A    between atoms: CA   and  CB  
ROOT
ATOM    102  CA  VAL A 116      -2.467   0.283  18.565  1.00 13.48     0.180 C 
ENDROOT
BRANCH 102 103
ATOM    103  CB  VAL A 116      -3.101   1.238  19.599  1.00 20.86     0.009 C 
ATOM    104  CG1 VAL A 116      -3.027   2.677  19.080  1.00 25.01     0.012 C 
ATOM    105  CG2 VAL A 116      -4.523   0.830  19.908  1.00 25.34     0.012 C 
ENDBRANCH 102 103
END_RES VAL A 116
BEGIN_RES ILE A 123
REMARK  2 active torsions:
REMARK  status: ('A' for Active; 'I' for Inactive)
REMARK   33  A    between atoms: CA   and  CB  
REMARK   34  A    between atoms: CB   and  CG1 
ROOT
ATOM    106  CA  ILE A 123       1.557  -1.626  23.222  1.00 15.07     0.180 C 
ENDROOT
BRANCH 106 107
ATOM    107  CB  ILE A 123       1.697  -0.112  23.461  1.00 14.41     0.013 C 
ATOM    108  CG2 ILE A 123       3.102   0.208  23.940  1.00 18.35     0.012 C 
BRANCH 107 109
ATOM    109  CG1 ILE A 123       1.388   0.658  22.179  1.00 15.23     0.002 C 
ATOM    110  CD1 ILE A 123       0.243   1.632  22.319  1.00 14.67     0.005 C 
ENDBRANCH 107 109
ENDBRANCH 106 107
END_RES ILE A 123
BEGIN_RES LEU A 124
REMARK  2 active torsions:
REMARK  status: ('A' for Active; 'I' for Inactive)
REMARK   35  A    between atoms: CA   and  CB  
REMARK   36  A    between atoms: CB   and  CG  
ROOT
ATOM    111  CA  LEU A 124      -2.057  -2.686  23.524  1.00 11.86     0.177 C 
ENDROOT
BRANCH 111 112
ATOM    112  CB  LEU A 124      -2.698  -1.652  24.429  1.00 14.60     0.038 C 
BRANCH 112 113
ATOM    113  CG  LEU A 124      -2.631  -0.253  23.835  1.00 16.19    -0.020 C 
ATOM    114  CD1 LEU A 124      -4.054   0.200  23.455  1.00 22.07     0.009 C 
ATOM    115  CD2 LEU A 124      -1.989   0.684  24.828  1.00  9.12     0.009 C 
ENDBRANCH 112 113
ENDBRANCH 111 112
END_RES LEU A 124
BEGIN_RES PHE A 126
REMARK  2 active torsions:
REMARK  status: ('A' for Active; 'I' for Inactive)
REMARK   37  A    between atoms: CA   and  CB  
REMARK   38  A    between atoms: CB   and  CG  
ROOT
ATOM    116  CA  PHE A 126      -8.784  -4.792  22.233  1.00 23.15     0.180 C 
ENDROOT
BRANCH 116 117
ATOM    117  CB  PHE A 126      -9.823  -4.011  21.461  1.00 20.65     0.073 C 
BRANCH 117 118
ATOM    118  CG  PHE A 126     -10.956  -3.554  22.294  1.00 23.65    -0.056 A 
ATOM    119  CD2 PHE A 126     -12.214  -4.110  22.141  1.00 36.63     0.007 A 
ATOM    120  CE2 PHE A 126     -13.286  -3.676  22.933  1.00 36.27     0.001 A 
ATOM    121  CZ  PHE A 126     -13.090  -2.681  23.878  1.00 18.06     0.000 A 
ATOM    122  CE1 PHE A 126     -11.836  -2.125  24.035  1.00  5.50     0.001 A 
ATOM    123  CD1 PHE A 126     -10.774  -2.565  23.245  1.00 15.29     0.007 A 
ENDBRANCH 117 118
ENDBRANCH 116 117
END_RES PHE A 126
BEGIN_RES TRP A 131
REMARK  2 active torsions:
REMARK  status: ('A' for Active; 'I' for Inactive)
REMARK   39  A    between atoms: CA   and  CB  
REMARK   40  A    between atoms: CB   and  CG  
ROOT
ATOM    124  CA  TRP A 131      -8.096  -3.335  26.542  1.00 14.52     0.181 C 
ENDROOT
BRANCH 124 125
ATOM    125  CB  TRP A 131      -7.651  -1.877  26.607  1.00 13.06     0.075 C 
BRANCH 125 126
ATOM    126  CG  TRP A 131      -8.047  -1.052  25.402  1.00 16.97    -0.028 A 
ATOM    127  CD2 TRP A 131      -9.130  -0.122  25.326  1.00 11.34    -0.002 A 
ATOM    128  CE2 TRP A 131      -9.130   0.422  24.026  1.00  5.87     0.042 A 
ATOM    129  CE3 TRP A 131     -10.104   0.304  26.236  1.00  3.80     0.014 A 
ATOM    130  CZ2 TRP A 131     -10.065   1.373  23.614  1.00  1.35     0.030 A 
ATOM    131  NE1 TRP A 131      -8.095  -0.153  23.340  1.00 13.90    -0.365 N 
ATOM    132  CH2 TRP A 131     -11.008   1.773  24.528  1.00  1.00     0.002 A 
ATOM    133  CZ3 TRP A 131     -11.034   1.244  25.832  1.00  1.00     0.001 A 
ATOM    134  CD1 TRP A 131      -7.448  -1.036  24.172  1.00 17.22     0.096 A 
ATOM    135  H07 TRP A 131      -7.846   0.041  22.381  1.00 13.90     0.165 HD
ENDBRANCH 125 126
ENDBRANCH 124 125
END_RES TRP A 131
BEGIN_RES LEU A 148
REMARK  2 active torsions:
REMARK  status: ('A' for Active; 'I' for Inactive)
REMARK   41  A    between atoms: CA   and  CB  
REMARK   42  A    between atoms: CB   and  CG  
ROOT
ATOM    136  CA  LEU A 148      -9.018   3.259  29.295  1.00 16.99     0.177 C 
ENDROOT
BRANCH 136 137
ATOM    137  CB  LEU A 148      -8.166   2.574  28.236  1.00  6.39     0.038 C 
BRANCH 137 138
ATOM    138  CG  LEU A 148      -8.001   3.176  26.855  1.00  1.00    -0.020 C 
ATOM    139  CD2 LEU A 148      -6.803   2.586  26.170  1.00  1.00     0.009 C 
ATOM    140  CD1 LEU A 148      -7.844   4.678  27.007  1.00  2.71     0.009 C 
ENDBRANCH 137 138
ENDBRANCH 136 137
END_RES LEU A 148
BEGIN_RES THR A 154
REMARK  2 active torsions:
REMARK  status: ('A' for Active; 'I' for Inactive)
REMARK   43  A    between atoms: CA   and  CB  
REMARK   44  A    between atoms: CB   and  OG1 
ROOT
ATOM    141  CA  THR A 154     -15.990   3.959  24.426  1.00 20.45     0.205 C 
ENDROOT
BRANCH 141 142
ATOM    142  CB  THR A 154     -14.777   4.829  24.694  1.00 16.79     0.146 C 
ATOM    143  CG2 THR A 154     -13.658   4.478  23.732  1.00 20.24     0.042 C 
BRANCH 142 144
ATOM    144  OG1 THR A 154     -15.139   6.202  24.502  1.00 18.84    -0.393 OA
ATOM    145  H06 THR A 154     -15.797   6.266  23.807  1.00 18.84     0.210 HD
ENDBRANCH 142 144
ENDBRANCH 141 142
END_RES THR A 154
BEGIN_RES VAL A 158
REMARK  1 active torsions:
REMARK  status: ('A' for Active; 'I' for Inactive)
REMARK   45  A    between atoms: CA   and  CB  
ROOT
ATOM    146  CA  VAL A 158     -15.487  -0.189  19.892  1.00 15.49     0.180 C 
ENDROOT
BRANCH 146 147
ATOM    147  CB  VAL A 158     -14.291  -0.273  20.822  1.00  6.52     0.009 C 
ATOM    148  CG1 VAL A 158     -13.250  -1.223  20.277  1.00  1.00     0.012 C 
ATOM    149  CG2 VAL A 158     -13.717   1.100  20.992  1.00  5.99     0.012 C 
ENDBRANCH 146 147
END_RES VAL A 158
BEGIN_RES LEU A 161
REMARK  2 active torsions:
REMARK  status: ('A' for Active; 'I' for Inactive)
REMARK   46  A    between atoms: CA   and  CB  
REMARK   47  A    between atoms: CB   and  CG  
ROOT
ATOM    150  CA  LEU A 161     -18.031  -1.858  15.935  1.00 13.31     0.177 C 
ENDROOT
BRANCH 150 151
ATOM    151  CB  LEU A 161     -17.046  -0.706  16.001  1.00 14.13     0.038 C 
BRANCH 151 152
ATOM    152  CG  LEU A 161     -17.455   0.574  15.282  1.00 19.39    -0.020 C 
ATOM    153  CD2 LEU A 161     -18.770   1.080  15.825  1.00 27.75     0.009 C 
ATOM    154  CD1 LEU A 161     -17.581   0.286  13.811  1.00 18.59     0.009 C 
ENDBRANCH 151 152
ENDBRANCH 150 151
END_RES LEU A 161
BEGIN_RES GLN A 168
REMARK  3 active torsions:
REMARK  status: ('A' for Active; 'I' for Inactive)
REMARK   48  A    between atoms: CA   and  CB  
REMARK   49  A    between atoms: CB   and  CG  
REMARK   50  A    between atoms: CG   and  CD  
REMARK       I    between atoms: CD   and  NE2 
ROOT
ATOM    155  CA  GLN A 168     -22.035  -6.020   8.155  1.00 30.94     0.177 C 
ENDROOT
BRANCH 155 156
ATOM    156  CB  GLN A 168     -23.054  -5.218   8.946  1.00 41.76     0.044 C 
BRANCH 156 157
ATOM    157  CG  GLN A 168     -24.481  -5.423   8.514  1.00 61.20     0.105 C 
BRANCH 157 158
ATOM    158  CD  GLN A 168     -24.974  -4.290   7.636  1.00 75.49     0.215 C 
ATOM    159  NE2 GLN A 168     -24.801  -4.444   6.322  1.00 85.00    -0.370 N 
ATOM    160  H06 GLN A 168     -25.107  -3.722   5.684  1.00 85.00     0.159 HD
ATOM    161  H07 GLN A 168     -24.365  -5.282   5.965  1.00 85.00     0.159 HD
ATOM    162  OE1 GLN A 168     -25.500  -3.281   8.129  1.00 73.64    -0.274 OA
ENDBRANCH 157 158
ENDBRANCH 156 157
ENDBRANCH 155 156
END_RES GLN A 168
ENDMDL
MODEL 2
REMARK VINA RESULT:      -9.6      1.661      4.968
REMARK  Name = human_CD1d_DDM_pred.rank_0
REMARK  16 active torsions:
REMARK  status: ('A' for Active; 'I' for Inactive)
REMARK    1  A    between atoms: O_2  and  C_23
REMARK    2  A    between atoms: O_2  and  C_24
REMARK    3  A    between atoms: C_3  and  C_5
REMARK    4  A    between atoms: C_5  and  C_7
REMARK    5  A    between atoms: C_7  and  C_9
REMARK    6  A    between atoms: O_8  and  C_27
REMARK    7  A    between atoms: O_8  and  C_30
REMARK    8  A    between atoms: C_9  and  C_11
REMARK    9  A    between atoms: C_11  and  C_13
REMARK   10  A    between atoms: C_13  and  C_15
REMARK   11  A    between atoms: C_15  and  C_17
REMARK   12  A    between atoms: C_17  and  C_19
REMARK   13  A    between atoms: C_19  and  C_21
REMARK   14  A    between atoms: C_21  and  C_23
REMARK   15  A    between atoms: C_28  and  C_29
REMARK   16  A    between atoms: C_34  and  C_35
REMARK                            x       y       z     vdW  Elec       q    Type
REMARK                         _______ _______ _______ _____ _____    ______ ____
ROOT
ATOM      1  O   UNL     1     -13.090   1.263  13.727  0.00  0.00    +0.000 OA
ATOM      2  O   UNL     1     -15.543   4.168  12.066  0.00  0.00    +0.000 OA
ATOM      3  O   UNL     1     -15.635   3.594  14.851  0.00  0.00    +0.000 OA
ATOM      4  C   UNL     1     -14.055   1.806  14.595  0.00  0.00    +0.000 C 
ATOM      5  C   UNL     1     -14.582   3.143  14.040  0.00  0.00    +0.000 C 
ATOM      6  C   UNL     1     -15.095   2.946  12.591  0.00  0.00    +0.000 C 
ATOM      7  C   UNL     1     -13.956   2.360  11.761  0.00  0.00    +0.000 C 
ATOM      8  C   UNL     1     -13.720   0.983  12.399  0.00  0.00    +0.000 C 
ENDROOT
BRANCH   8  10
ATOM      9  O   UNL     1     -12.625  -1.079  12.582  0.00  0.00    +0.000 OA
ATOM     10  C   UNL     1     -12.768   0.070  11.681  0.00  0.00    +0.000 C 
ENDBRANCH   8  10
BRANCH   7  11
ATOM     11  O   UNL     1     -14.153   2.341  10.367  0.00  0.00    +0.000 OA
BRANCH  11  16
ATOM     12  O   UNL     1     -16.173   2.831   9.276  0.00  0.00    +0.000 OA
ATOM     13  O   UNL     1     -13.977   3.932   6.532  0.00  0.00    +0.000 OA
ATOM     14  O   UNL     1     -13.675   1.081   6.519  0.00  0.00    +0.000 OA
ATOM     15  O   UNL     1     -14.192  -0.248   8.936  0.00  0.00    +0.000 OA
ATOM     16  C   UNL     1     -15.335   1.763   9.749  0.00  0.00    +0.000 C 
ATOM     17  C   UNL     1     -14.949   0.894   8.544  0.00  0.00    +0.000 C 
ATOM     18  C   UNL     1     -14.054   1.792   7.666  0.00  0.00    +0.000 C 
ATOM     19  C   UNL     1     -14.865   3.061   7.250  0.00  0.00    +0.000 C 
ATOM     20  C   UNL     1     -15.414   3.792   8.481  0.00  0.00    +0.000 C 
BRANCH  20  22
ATOM     21  O   UNL     1     -16.450   5.776   9.177  0.00  0.00    +0.000 OA
ATOM     22  C   UNL     1     -16.365   4.885   8.106  0.00  0.00    +0.000 C 
ENDBRANCH  20  22
ENDBRANCH  11  16
ENDBRANCH   7  11
BRANCH   4  23
ATOM     23  O   UNL     1     -13.455   2.028  15.832  0.00  0.00    +0.000 OA
BRANCH  23  24
ATOM     24  C   UNL     1     -12.036   1.861  15.775  0.00  0.00    +0.000 C 
BRANCH  24  25
ATOM     25  C   UNL     1     -11.333   3.151  16.243  0.00  0.00    +0.000 C 
BRANCH  25  26
ATOM     26  C   UNL     1     -10.650   3.809  15.045  0.00  0.00    +0.000 C 
BRANCH  26  27
ATOM     27  C   UNL     1      -9.114   3.699  15.182  0.00  0.00    +0.000 C 
BRANCH  27  28
ATOM     28  C   UNL     1      -8.454   5.063  15.116  0.00  0.00    +0.000 C 
BRANCH  28  29
ATOM     29  C   UNL     1      -8.500   5.724  16.482  0.00  0.00    +0.000 C 
BRANCH  29  30
ATOM     30  C   UNL     1      -8.147   4.743  17.565  0.00  0.00    +0.000 C 
BRANCH  30  31
ATOM     31  C   UNL     1      -9.091   4.883  18.702  0.00  0.00    +0.000 C 
BRANCH  31  32
ATOM     32  C   UNL     1     -10.067   6.012  18.492  0.00  0.00    +0.000 C 
BRANCH  32  33
ATOM     33  C   UNL     1     -10.751   6.343  19.806  0.00  0.00    +0.000 C 
BRANCH  33  35
ATOM     34  C   UNL     1     -10.985   8.222  21.399  0.00  0.00    +0.000 C 
ATOM     35  C   UNL     1     -10.985   7.816  19.945  0.00  0.00    +0.000 C 
ENDBRANCH  33  35
ENDBRANCH  32  33
ENDBRANCH  31  32
ENDBRANCH  30  31
ENDBRANCH  29  30
ENDBRANCH  28  29
ENDBRANCH  27  28
ENDBRANCH  26  27
ENDBRANCH  25  26
ENDBRANCH  24  25
ENDBRANCH  23  24
ENDBRANCH   4  23
TORSDOF 16
BEGIN_RES LEU A  10
REMARK  2 active torsions:
REMARK  status: ('A' for Active; 'I' for Inactive)
REMARK    1  A    between atoms: CA   and  CB  
REMARK    2  A    between atoms: CB   and  CG  
ROOT
ATOM      1  CA  LEU A  10     -10.775  -4.871   5.898  1.00 25.14     0.177 C 
ENDROOT
BRANCH   1   2
ATOM      2  CB  LEU A  10     -12.191  -4.387   6.226  1.00 17.87     0.038 C 
BRANCH   2   3
ATOM      3  CG  LEU A  10     -12.450  -2.916   5.894  1.00 24.95    -0.020 C 
ATOM      4  CD2 LEU A  10     -13.763  -2.510   6.472  1.00 26.38     0.009 C 
ATOM      5  CD1 LEU A  10     -12.433  -2.687   4.392  1.00 28.12     0.009 C 
ENDBRANCH   2   3
ENDBRANCH   1   2
END_RES LEU A  10
BEGIN_RES CYS A  12
REMARK  2 active torsions:
REMARK  status: ('A' for Active; 'I' for Inactive)
REMARK    3  A    between atoms: CA   and  CB  
REMARK    4  A    between atoms: CB   and  SG  
ROOT
ATOM      6  CA  CYS A  12      -8.555   0.470   8.750  1.00 23.16     0.185 C 
ENDROOT
BRANCH   6   7
ATOM      7  CB  CYS A  12      -9.828   0.763   9.555  1.00 20.43     0.105 C 
BRANCH   7   8
ATOM      8  SG  CYS A  12     -10.699   2.306   9.141  1.00 24.64    -0.180 SA
ATOM      9  H04 CYS A  12     -12.015   2.140   9.328  1.00 24.64     0.101 HD
ENDBRANCH   7   8
ENDBRANCH   6   7
END_RES CYS A  12
BEGIN_RES GLN A  14
REMARK  3 active torsions:
REMARK  status: ('A' for Active; 'I' for Inactive)
REMARK    5  A    between atoms: CA   and  CB  
REMARK    6  A    between atoms: CB   and  CG  
REMARK    7  A    between atoms: CG   and  CD  
REMARK       I    between atoms: CD   and  NE2 
ROOT
ATOM     10  CA  GLN A  14      -4.645   5.402  11.377  1.00 10.43     0.177 C 
ENDROOT
BRANCH  10  11
ATOM     11  CB  GLN A  14      -5.541   5.549  12.608  1.00 14.45     0.044 C 
BRANCH  11  12
ATOM     12  CG  GLN A  14      -6.496   6.718  12.540  1.00 13.74     0.105 C 
BRANCH  12  13
ATOM     13  CD  GLN A  14      -5.908   7.979  13.126  1.00 16.29     0.215 C 
ATOM     14  NE2 GLN A  14      -6.337   8.326  14.320  1.00  8.57    -0.370 N 
ATOM     15  H06 GLN A  14      -5.978   9.160  14.762  1.00  8.57     0.159 HD
ATOM     16  H07 GLN A  14      -7.025   7.759  14.794  1.00  8.57     0.159 HD
ATOM     17  OE1 GLN A  14      -5.076   8.630  12.513  1.00 23.55    -0.274 OA
ENDBRANCH  12  13
ENDBRANCH  11  12
ENDBRANCH  10  11
END_RES GLN A  14
BEGIN_RES SER A  16
REMARK  2 active torsions:
REMARK  status: ('A' for Active; 'I' for Inactive)
REMARK    8  A    between atoms: CA   and  CB  
REMARK    9  A    between atoms: CB   and  OG  
ROOT
ATOM     18  CA  SER A  16      -1.305  10.019  14.282  1.00  2.34     0.200 C 
ENDROOT
BRANCH  18  19
ATOM     19  CB  SER A  16      -2.242   9.935  15.479  1.00  3.12     0.199 C 
BRANCH  19  20
ATOM     20  OG  SER A  16      -3.472   9.342  15.101  1.00  1.00    -0.398 OA
ATOM     21  H04 SER A  16      -3.997   9.166  15.885  1.00  1.00     0.209 HD
ENDBRANCH  19  20
ENDBRANCH  18  19
END_RES SER A  16
BEGIN_RES LEU A  32
REMARK  2 active torsions:
REMARK  status: ('A' for Active; 'I' for Inactive)
REMARK   10  A    between atoms: CA   and  CB  
REMARK   11  A    between atoms: CB   and  CG  
ROOT
ATOM     22  CA  LEU A  32     -10.272  -4.106   1.587  1.00 16.16     0.177 C 
ENDROOT
BRANCH  22  23
ATOM     23  CB  LEU A  32     -11.613  -3.858   0.880  1.00 12.35     0.038 C 
BRANCH  23  24
ATOM     24  CG  LEU A  32     -12.491  -5.126   0.852  1.00  9.77    -0.020 C 
ATOM     25  CD1 LEU A  32     -13.011  -5.435   2.235  1.00  4.35     0.009 C 
ATOM     26  CD2 LEU A  32     -13.645  -4.959  -0.101  1.00 10.60     0.009 C 
ENDBRANCH  23  24
ENDBRANCH  22  23
END_RES LEU A  32
BEGIN_RES HIS A  38
REMARK  2 active torsions:
REMARK  status: ('A' for Active; 'I' for Inactive)
REMARK   12  A    between atoms: CA   and  CB  
REMARK   13  A    between atoms: CB   and  CG  
ROOT
ATOM     27  CA  HIS A  38     -10.959   4.941   1.621  1.00 16.94     0.182 C 
ENDROOT
BRANCH  27  28
ATOM     28  CB  HIS A  38     -11.810   4.840   2.881  1.00 15.47     0.095 C 
BRANCH  28  29
ATOM     29  CG  HIS A  38     -12.993   3.937   2.740  1.00 18.62     0.053 A 
ATOM     30  CD2 HIS A  38     -14.140   4.080   2.033  1.00 15.06     0.116 A 
ATOM     31  NE2 HIS A  38     -14.876   2.940   2.229  1.00 18.12    -0.359 N 
ATOM     32  CE1 HIS A  38     -14.209   2.127   3.026  1.00 14.78     0.207 A 
ATOM     33  H06 HIS A  38     -15.784   2.753   1.828  1.00 18.12     0.166 HD
ATOM     34  ND1 HIS A  38     -13.070   2.705   3.350  1.00 16.58    -0.247 NA
ENDBRANCH  28  29
ENDBRANCH  27  28
END_RES HIS A  38
BEGIN_RES TRP A  63
REMARK  2 active torsions:
REMARK  status: ('A' for Active; 'I' for Inactive)
REMARK   14  A    between atoms: CA   and  CB  
REMARK   15  A    between atoms: CB   and  CG  
ROOT
ATOM     35  CA  TRP A  63     -22.437   6.257   6.543  1.00 27.04     0.181 C 
ENDROOT
BRANCH  35  36
ATOM     36  CB  TRP A  63     -22.360   6.642   5.068  1.00 31.37     0.075 C 
BRANCH  36  37
ATOM     37  CG  TRP A  63     -20.953   6.775   4.525  1.00 34.37    -0.028 A 
ATOM     38  CD2 TRP A  63     -19.886   5.823   4.638  1.00 33.79    -0.002 A 
ATOM     39  CE3 TRP A  63     -19.750   4.585   5.270  1.00 32.99     0.014 A 
ATOM     40  CE2 TRP A  63     -18.786   6.343   3.921  1.00 35.84     0.042 A 
ATOM     41  CZ3 TRP A  63     -18.539   3.914   5.170  1.00 32.93     0.001 A 
ATOM     42  CH2 TRP A  63     -17.464   4.458   4.450  1.00 39.24     0.002 A 
ATOM     43  CZ2 TRP A  63     -17.568   5.669   3.819  1.00 37.99     0.030 A 
ATOM     44  NE1 TRP A  63     -19.170   7.549   3.403  1.00 37.98    -0.365 N 
ATOM     45  H06 TRP A  63     -18.592   8.158   2.841  1.00 37.98     0.165 HD
ATOM     46  CD1 TRP A  63     -20.469   7.799   3.773  1.00 38.16     0.096 A 
ENDBRANCH  36  37
ENDBRANCH  35  36
END_RES TRP A  63
BEGIN_RES LEU A  66
REMARK  2 active torsions:
REMARK  status: ('A' for Active; 'I' for Inactive)
REMARK   16  A    between atoms: CA   and  CB  
REMARK   17  A    between atoms: CB   and  CG  
ROOT
ATOM     47  CA  LEU A  66     -20.004   6.489  11.120  1.00 10.90     0.177 C 
ENDROOT
BRANCH  47  48
ATOM     48  CB  LEU A  66     -19.626   5.453  10.069  1.00 13.57     0.038 C 
BRANCH  48  49
ATOM     49  CG  LEU A  66     -19.328   4.036  10.559  1.00  8.73    -0.020 C 
ATOM     50  CD1 LEU A  66     -19.089   4.028  12.046  1.00 14.23     0.009 C 
ATOM     51  CD2 LEU A  66     -20.504   3.157  10.219  1.00  1.92     0.009 C 
ENDBRANCH  48  49
ENDBRANCH  47  48
END_RES LEU A  66
BEGIN_RES PHE A  70
REMARK  2 active torsions:
REMARK  status: ('A' for Active; 'I' for Inactive)
REMARK   18  A    between atoms: CA   and  CB  
REMARK   19  A    between atoms: CB   and  CG  
ROOT
ATOM     52  CA  PHE A  70     -14.974   9.434  13.165  1.00  8.78     0.180 C 
ENDROOT
BRANCH  52  53
ATOM     53  CB  PHE A  70     -14.707   9.132  11.681  1.00  6.33     0.073 C 
BRANCH  53  54
ATOM     54  CG  PHE A  70     -13.939   7.857  11.459  1.00  3.42    -0.056 A 
ATOM     55  CD1 PHE A  70     -13.425   7.136  12.526  1.00 13.88     0.007 A 
ATOM     56  CE1 PHE A  70     -12.668   5.972  12.308  1.00 12.71     0.001 A 
ATOM     57  CZ  PHE A  70     -12.425   5.525  11.009  1.00  4.21     0.000 A 
ATOM     58  CE2 PHE A  70     -12.934   6.234   9.937  1.00  2.83     0.001 A 
ATOM     59  CD2 PHE A  70     -13.690   7.397  10.165  1.00  1.00     0.007 A 
ENDBRANCH  53  54
ENDBRANCH  52  53
END_RES PHE A  70
BEGIN_RES TYR A  73
REMARK  3 active torsions:
REMARK  status: ('A' for Active; 'I' for Inactive)
REMARK   20  A    between atoms: CA   and  CB  
REMARK   21  A    between atoms: CB   and  CG  
REMARK   22  A    between atoms: CZ   and  OH  
ROOT
ATOM     60  CA  TYR A  73     -13.212  10.166  17.260  1.00 12.17     0.180 C 
ENDROOT
BRANCH  60  61
ATOM     61  CB  TYR A  73     -13.301   8.846  16.517  1.00 12.84     0.073 C 
BRANCH  61  62
ATOM     62  CG  TYR A  73     -13.696   7.709  17.393  1.00 15.89    -0.056 A 
ATOM     63  CD1 TYR A  73     -14.265   7.927  18.628  1.00 16.00     0.010 A 
ATOM     64  CE1 TYR A  73     -14.608   6.864  19.463  1.00 13.55     0.037 A 
ATOM     65  CZ  TYR A  73     -14.371   5.570  19.043  1.00 18.13     0.065 A 
ATOM     66  CE2 TYR A  73     -13.806   5.325  17.814  1.00 15.89     0.037 A 
ATOM     67  CD2 TYR A  73     -13.471   6.396  16.994  1.00 21.86     0.010 A 
BRANCH  65  68
ATOM     68  OH  TYR A  73     -14.706   4.508  19.847  1.00 12.12    -0.361 OA
ATOM     69  H08 TYR A  73     -14.160   3.751  19.622  1.00 12.12     0.217 HD
ENDBRANCH  65  68
ENDBRANCH  61  62
ENDBRANCH  60  61
END_RES TYR A  73
BEGIN_RES PHE A  77
REMARK  2 active torsions:
REMARK  status: ('A' for Active; 'I' for Inactive)
REMARK   23  A    between atoms: CA   and  CB  
REMARK   24  A    between atoms: CB   and  CG  
ROOT
ATOM     70  CA  PHE A  77      -8.400  10.581  20.110  1.00 17.17     0.180 C 
ENDROOT
BRANCH  70  71
ATOM     71  CB  PHE A  77      -8.228   9.750  18.851  1.00 10.44     0.073 C 
BRANCH  71  72
ATOM     72  CG  PHE A  77      -7.254   8.624  19.000  1.00  6.07    -0.056 A 
ATOM     73  CD2 PHE A  77      -6.347   8.346  18.003  1.00  9.61     0.007 A 
ATOM     74  CE2 PHE A  77      -5.438   7.303  18.134  1.00  1.00     0.001 A 
ATOM     75  CZ  PHE A  77      -5.435   6.529  19.282  1.00  1.92     0.000 A 
ATOM     76  CE1 PHE A  77      -6.334   6.794  20.289  1.00  9.25     0.001 A 
ATOM     77  CD1 PHE A  77      -7.243   7.843  20.144  1.00  9.63     0.007 A 
ENDBRANCH  71  72
ENDBRANCH  70  71
END_RES PHE A  77
BEGIN_RES LEU A  96
REMARK  2 active torsions:
REMARK  status: ('A' for Active; 'I' for Inactive)
REMARK   25  A    between atoms: CA   and  CB  
REMARK   26  A    between atoms: CB   and  CG  
ROOT
ATOM     78  CA  LEU A  96       0.717   6.481  17.359  1.00 16.08     0.177 C 
ENDROOT
BRANCH  78  79
ATOM     79  CB  LEU A  96      -0.370   7.101  18.230  1.00 18.83     0.038 C 
BRANCH  79  80
ATOM     80  CG  LEU A  96      -0.245   6.787  19.721  1.00 19.03    -0.020 C 
ATOM     81  CD1 LEU A  96       0.432   7.949  20.409  1.00 28.17     0.009 C 
ATOM     82  CD2 LEU A  96      -1.612   6.597  20.336  1.00 22.01     0.009 C 
ENDBRANCH  79  80
ENDBRANCH  78  79
END_RES LEU A  96
BEGIN_RES VAL A  98
REMARK  1 active torsions:
REMARK  status: ('A' for Active; 'I' for Inactive)
REMARK   27  A    between atoms: CA   and  CB  
ROOT
ATOM     83  CA  VAL A  98      -3.928   2.082  14.897  1.00 19.83     0.180 C 
ENDROOT
BRANCH  83  84
ATOM     84  CB  VAL A  98      -5.203   2.807  15.281  1.00 17.87     0.009 C 
ATOM     85  CG2 VAL A  98      -4.889   4.223  15.690  1.00 29.90     0.012 C 
ATOM     86  CG1 VAL A  98      -5.890   2.062  16.406  1.00 14.79     0.012 C 
ENDBRANCH  83  84
END_RES VAL A  98
BEGIN_RES ASN A 112
REMARK  2 active torsions:
REMARK  status: ('A' for Active; 'I' for Inactive)
REMARK   28  A    between atoms: CA   and  CB  
REMARK   29  A    between atoms: CB   and  CG  
REMARK       I    between atoms: CG   and  ND2 
ROOT
ATOM     87  CA  ASN A 112     -11.790  -8.793  14.069  1.00 37.70     0.185 C 
ENDROOT
BRANCH  87  88
ATOM     88  CB  ASN A 112     -12.992  -7.945  14.465  1.00 26.24     0.137 C 
BRANCH  88  89
ATOM     89  CG  ASN A 112     -13.838  -8.584  15.543  1.00 21.77     0.217 C 
ATOM     90  ND2 ASN A 112     -13.364  -8.505  16.787  1.00  9.31    -0.370 N 
ATOM     91  H04 ASN A 112     -13.882  -8.914  17.551  1.00  9.31     0.159 HD
ATOM     92  H05 ASN A 112     -12.487  -8.037  16.964  1.00  9.31     0.159 HD
ATOM     93  OD1 ASN A 112     -14.904  -9.146  15.266  1.00 21.61    -0.274 OA
ENDBRANCH  88  89
ENDBRANCH  87  88
END_RES ASN A 112
BEGIN_RES PHE A 114
REMARK  2 active torsions:
REMARK  status: ('A' for Active; 'I' for Inactive)
REMARK   30  A    between atoms: CA   and  CB  
REMARK   31  A    between atoms: CB   and  CG  
ROOT
ATOM     94  CA  PHE A 114      -7.754  -3.619  17.012  1.00 26.06     0.180 C 
ENDROOT
BRANCH  94  95
ATOM     95  CB  PHE A 114      -8.890  -3.080  17.867  1.00 19.95     0.073 C 
BRANCH  95  96
ATOM     96  CG  PHE A 114      -8.776  -1.617  18.149  1.00 17.65    -0.056 A 
ATOM     97  CD1 PHE A 114      -8.588  -1.154  19.448  1.00 13.01     0.007 A 
ATOM     98  CE1 PHE A 114      -8.511   0.207  19.715  1.00  6.74     0.001 A 
ATOM     99  CZ  PHE A 114      -8.620   1.128  18.677  1.00  6.27     0.000 A 
ATOM    100  CE2 PHE A 114      -8.807   0.679  17.380  1.00 17.36     0.001 A 
ATOM    101  CD2 PHE A 114      -8.885  -0.693  17.118  1.00 18.39     0.007 A 
ENDBRANCH  95  96
ENDBRANCH  94  95
END_RES PHE A 114
BEGIN_RES VAL A 116
REMARK  1 active torsions:
REMARK  status: ('A' for Active; 'I' for Inactive)
REMARK   32  A    between atoms: CA   and  CB  
ROOT
ATOM    102  CA  VAL A 116      -2.467   0.283  18.565  1.00 13.48     0.180 C 
ENDROOT
BRANCH 102 103
ATOM    103  CB  VAL A 116      -3.101   1.238  19.599  1.00 20.86     0.009 C 
ATOM    104  CG1 VAL A 116      -2.934   2.685  19.129  1.00 25.01     0.012 C 
ATOM    105  CG2 VAL A 116      -4.553   0.892  19.832  1.00 25.34     0.012 C 
ENDBRANCH 102 103
END_RES VAL A 116
BEGIN_RES ILE A 123
REMARK  2 active torsions:
REMARK  status: ('A' for Active; 'I' for Inactive)
REMARK   33  A    between atoms: CA   and  CB  
REMARK   34  A    between atoms: CB   and  CG1 
ROOT
ATOM    106  CA  ILE A 123       1.557  -1.626  23.222  1.00 15.07     0.180 C 
ENDROOT
BRANCH 106 107
ATOM    107  CB  ILE A 123       1.697  -0.112  23.461  1.00 14.41     0.013 C 
ATOM    108  CG2 ILE A 123       3.099   0.207  23.949  1.00 18.35     0.012 C 
BRANCH 107 109
ATOM    109  CG1 ILE A 123       1.397   0.657  22.177  1.00 15.23     0.002 C 
ATOM    110  CD1 ILE A 123       0.222   1.598  22.295  1.00 14.67     0.005 C 
ENDBRANCH 107 109
ENDBRANCH 106 107
END_RES ILE A 123
BEGIN_RES LEU A 124
REMARK  2 active torsions:
REMARK  status: ('A' for Active; 'I' for Inactive)
REMARK   35  A    between atoms: CA   and  CB  
REMARK   36  A    between atoms: CB   and  CG  
ROOT
ATOM    111  CA  LEU A 124      -2.057  -2.686  23.524  1.00 11.86     0.177 C 
ENDROOT
BRANCH 111 112
ATOM    112  CB  LEU A 124      -2.698  -1.652  24.429  1.00 14.60     0.038 C 
BRANCH 112 113
ATOM    113  CG  LEU A 124      -2.611  -0.250  23.846  1.00 16.19    -0.020 C 
ATOM    114  CD1 LEU A 124      -4.021   0.206  23.422  1.00 22.07     0.009 C 
ATOM    115  CD2 LEU A 124      -2.002   0.681  24.864  1.00  9.12     0.009 C 
ENDBRANCH 112 113
ENDBRANCH 111 112
END_RES LEU A 124
BEGIN_RES PHE A 126
REMARK  2 active torsions:
REMARK  status: ('A' for Active; 'I' for Inactive)
REMARK   37  A    between atoms: CA   and  CB  
REMARK   38  A    between atoms: CB   and  CG  
ROOT
ATOM    116  CA  PHE A 126      -8.784  -4.792  22.233  1.00 23.15     0.180 C 
ENDROOT
BRANCH 116 117
ATOM    117  CB  PHE A 126      -9.823  -4.011  21.461  1.00 20.65     0.073 C 
BRANCH 117 118
ATOM    118  CG  PHE A 126     -10.950  -3.544  22.296  1.00 23.65    -0.056 A 
ATOM    119  CD2 PHE A 126     -10.770  -2.531  23.222  1.00 36.63     0.007 A 
ATOM    120  CE2 PHE A 126     -11.840  -2.087  24.012  1.00 36.27     0.001 A 
ATOM    121  CZ  PHE A 126     -13.091  -2.667  23.869  1.00 18.06     0.000 A 
ATOM    122  CE1 PHE A 126     -13.275  -3.677  22.946  1.00  5.50     0.001 A 
ATOM    123  CD1 PHE A 126     -12.206  -4.110  22.162  1.00 15.29     0.007 A 
ENDBRANCH 117 118
ENDBRANCH 116 117
END_RES PHE A 126
BEGIN_RES TRP A 131
REMARK  2 active torsions:
REMARK  status: ('A' for Active; 'I' for Inactive)
REMARK   39  A    between atoms: CA   and  CB  
REMARK   40  A    between atoms: CB   and  CG  
ROOT
ATOM    124  CA  TRP A 131      -8.096  -3.335  26.542  1.00 14.52     0.181 C 
ENDROOT
BRANCH 124 125
ATOM    125  CB  TRP A 131      -7.651  -1.877  26.607  1.00 13.06     0.075 C 
BRANCH 125 126
ATOM    126  CG  TRP A 131      -8.032  -1.057  25.394  1.00 16.97    -0.028 A 
ATOM    127  CD2 TRP A 131      -9.114  -0.126  25.301  1.00 11.34    -0.002 A 
ATOM    128  CE2 TRP A 131      -9.097   0.413  23.999  1.00  5.87     0.042 A 
ATOM    129  CE3 TRP A 131     -10.098   0.303  26.197  1.00  3.80     0.014 A 
ATOM    130  CZ2 TRP A 131     -10.026   1.362  23.572  1.00  1.35     0.030 A 
ATOM    131  NE1 TRP A 131      -8.053  -0.165  23.329  1.00 13.90    -0.365 N 
ATOM    132  CH2 TRP A 131     -10.981   1.766  24.473  1.00  1.00     0.002 A 
ATOM    133  CZ3 TRP A 131     -11.023   1.243  25.778  1.00  1.00     0.001 A 
ATOM    134  CD1 TRP A 131      -7.417  -1.045  24.172  1.00 17.22     0.096 A 
ATOM    135  H07 TRP A 131      -7.793   0.025  22.372  1.00 13.90     0.165 HD
ENDBRANCH 125 126
ENDBRANCH 124 125
END_RES TRP A 131
BEGIN_RES LEU A 148
REMARK  2 active torsions:
REMARK  status: ('A' for Active; 'I' for Inactive)
REMARK   41  A    between atoms: CA   and  CB  
REMARK   42  A    between atoms: CB   and  CG  
ROOT
ATOM    136  CA  LEU A 148      -9.018   3.259  29.295  1.00 16.99     0.177 C 
ENDROOT
BRANCH 136 137
ATOM    137  CB  LEU A 148      -8.166   2.574  28.236  1.00  6.39     0.038 C 
BRANCH 137 138
ATOM    138  CG  LEU A 148      -8.014   3.167  26.850  1.00  1.00    -0.020 C 
ATOM    139  CD2 LEU A 148      -6.818   2.580  26.160  1.00  1.00     0.009 C 
ATOM    140  CD1 LEU A 148      -7.864   4.671  26.991  1.00  2.71     0.009 C 
ENDBRANCH 137 138
ENDBRANCH 136 137
END_RES LEU A 148
BEGIN_RES THR A 154
REMARK  2 active torsions:
REMARK  status: ('A' for Active; 'I' for Inactive)
REMARK   43  A    between atoms: CA   and  CB  
REMARK   44  A    between atoms: CB   and  OG1 
ROOT
ATOM    141  CA  THR A 154     -15.990   3.959  24.426  1.00 20.45     0.205 C 
ENDROOT
BRANCH 141 142
ATOM    142  CB  THR A 154     -14.777   4.829  24.694  1.00 16.79     0.146 C 
ATOM    143  CG2 THR A 154     -13.682   4.525  23.689  1.00 20.24     0.042 C 
BRANCH 142 144
ATOM    144  OG1 THR A 154     -15.155   6.205  24.564  1.00 18.84    -0.393 OA
ATOM    145  H06 THR A 154     -16.075   6.261  24.296  1.00 18.84     0.210 HD
ENDBRANCH 142 144
ENDBRANCH 141 142
END_RES THR A 154
BEGIN_RES VAL A 158
REMARK  1 active torsions:
REMARK  status: ('A' for Active; 'I' for Inactive)
REMARK   45  A    between atoms: CA   and  CB  
ROOT
ATOM    146  CA  VAL A 158     -15.487  -0.189  19.892  1.00 15.49     0.180 C 
ENDROOT
BRANCH 146 147
ATOM    147  CB  VAL A 158     -14.291  -0.273  20.822  1.00  6.52     0.009 C 
ATOM    148  CG1 VAL A 158     -13.250  -1.223  20.277  1.00  1.00     0.012 C 
ATOM    149  CG2 VAL A 158     -13.718   1.100  20.992  1.00  5.99     0.012 C 
ENDBRANCH 146 147
END_RES VAL A 158
BEGIN_RES LEU A 161
REMARK  2 active torsions:
REMARK  status: ('A' for Active; 'I' for Inactive)
REMARK   46  A    between atoms: CA   and  CB  
REMARK   47  A    between atoms: CB   and  CG  
ROOT
ATOM    150  CA  LEU A 161     -18.031  -1.858  15.935  1.00 13.31     0.177 C 
ENDROOT
BRANCH 150 151
ATOM    151  CB  LEU A 161     -17.046  -0.706  16.001  1.00 14.13     0.038 C 
BRANCH 151 152
ATOM    152  CG  LEU A 161     -17.438   0.561  15.251  1.00 19.39    -0.020 C 
ATOM    153  CD2 LEU A 161     -18.835   0.984  15.634  1.00 27.75     0.009 C 
ATOM    154  CD1 LEU A 161     -17.368   0.292  13.772  1.00 18.59     0.009 C 
ENDBRANCH 151 152
ENDBRANCH 150 151
END_RES LEU A 161
BEGIN_RES GLN A 168
REMARK  3 active torsions:
REMARK  status: ('A' for Active; 'I' for Inactive)
REMARK   48  A    between atoms: CA   and  CB  
REMARK   49  A    between atoms: CB   and  CG  
REMARK   50  A    between atoms: CG   and  CD  
REMARK       I    between atoms: CD   and  NE2 
ROOT
ATOM    155  CA  GLN A 168     -22.035  -6.020   8.155  1.00 30.94     0.177 C 
ENDROOT
BRANCH 155 156
ATOM    156  CB  GLN A 168     -23.054  -5.218   8.946  1.00 41.76     0.044 C 
BRANCH 156 157
ATOM    157  CG  GLN A 168     -24.315  -5.968   9.280  1.00 61.20     0.105 C 
BRANCH 157 158
ATOM    158  CD  GLN A 168     -24.286  -6.522  10.692  1.00 75.49     0.215 C 
ATOM    159  NE2 GLN A 168     -24.103  -7.839  10.805  1.00 85.00    -0.370 N 
ATOM    160  H06 GLN A 168     -24.077  -8.269  11.718  1.00 85.00     0.159 HD
ATOM    161  H07 GLN A 168     -23.992  -8.406   9.976  1.00 85.00     0.159 HD
ATOM    162  OE1 GLN A 168     -24.431  -5.780  11.673  1.00 73.64    -0.274 OA
ENDBRANCH 157 158
ENDBRANCH 156 157
ENDBRANCH 155 156
END_RES GLN A 168
ENDMDL
MODEL 3
REMARK VINA RESULT:      -9.5      1.167      2.431
REMARK  Name = human_CD1d_DDM_pred.rank_0
REMARK  16 active torsions:
REMARK  status: ('A' for Active; 'I' for Inactive)
REMARK    1  A    between atoms: O_2  and  C_23
REMARK    2  A    between atoms: O_2  and  C_24
REMARK    3  A    between atoms: C_3  and  C_5
REMARK    4  A    between atoms: C_5  and  C_7
REMARK    5  A    between atoms: C_7  and  C_9
REMARK    6  A    between atoms: O_8  and  C_27
REMARK    7  A    between atoms: O_8  and  C_30
REMARK    8  A    between atoms: C_9  and  C_11
REMARK    9  A    between atoms: C_11  and  C_13
REMARK   10  A    between atoms: C_13  and  C_15
REMARK   11  A    between atoms: C_15  and  C_17
REMARK   12  A    between atoms: C_17  and  C_19
REMARK   13  A    between atoms: C_19  and  C_21
REMARK   14  A    between atoms: C_21  and  C_23
REMARK   15  A    between atoms: C_28  and  C_29
REMARK   16  A    between atoms: C_34  and  C_35
REMARK                            x       y       z     vdW  Elec       q    Type
REMARK                         _______ _______ _______ _____ _____    ______ ____
ROOT
ATOM      1  O   UNL     1     -13.179   2.032  15.693  0.00  0.00    +0.000 OA
ATOM      2  O   UNL     1      -9.822   3.873  14.091  0.00  0.00    +0.000 OA
ATOM      3  O   UNL     1     -11.458   2.174  12.499  0.00  0.00    +0.000 OA
ATOM      4  C   UNL     1     -12.835   1.630  14.389  0.00  0.00    +0.000 C 
ATOM      5  C   UNL     1     -11.893   2.663  13.741  0.00  0.00    +0.000 C 
ATOM      6  C   UNL     1     -10.667   2.905  14.658  0.00  0.00    +0.000 C 
ATOM      7  C   UNL     1     -11.179   3.337  16.029  0.00  0.00    +0.000 C 
ATOM      8  C   UNL     1     -11.942   2.103  16.532  0.00  0.00    +0.000 C 
ENDROOT
BRANCH   8  10
ATOM      9  O   UNL     1     -13.877   2.030  17.849  0.00  0.00    +0.000 OA
ATOM     10  C   UNL     1     -12.418   2.148  17.955  0.00  0.00    +0.000 C 
ENDBRANCH   8  10
BRANCH   7  11
ATOM     11  O   UNL     1     -10.211   3.839  16.920  0.00  0.00    +0.000 OA
BRANCH  11  16
ATOM     12  O   UNL     1     -10.644   5.519  18.502  0.00  0.00    +0.000 OA
ATOM     13  O   UNL     1      -8.073   3.778  20.483  0.00  0.00    +0.000 OA
ATOM     14  O   UNL     1      -6.571   4.980  18.357  0.00  0.00    +0.000 OA
ATOM     15  O   UNL     1      -7.965   5.522  15.983  0.00  0.00    +0.000 OA
ATOM     16  C   UNL     1     -10.071   5.257  17.210  0.00  0.00    +0.000 C 
ATOM     17  C   UNL     1      -8.591   5.660  17.256  0.00  0.00    +0.000 C 
ATOM     18  C   UNL     1      -7.930   4.666  18.232  0.00  0.00    +0.000 C 
ATOM     19  C   UNL     1      -8.626   4.790  19.627  0.00  0.00    +0.000 C 
ATOM     20  C   UNL     1     -10.141   4.587  19.506  0.00  0.00    +0.000 C 
BRANCH  20  22
ATOM     21  O   UNL     1     -11.660   3.819  21.117  0.00  0.00    +0.000 OA
ATOM     22  C   UNL     1     -10.852   4.906  20.784  0.00  0.00    +0.000 C 
ENDBRANCH  20  22
ENDBRANCH  11  16
ENDBRANCH   7  11
BRANCH   4  23
ATOM     23  O   UNL     1     -14.003   1.539  13.636  0.00  0.00    +0.000 OA
BRANCH  23  24
ATOM     24  C   UNL     1     -14.800   2.722  13.743  0.00  0.00    +0.000 C 
BRANCH  24  25
ATOM     25  C   UNL     1     -15.395   3.084  12.367  0.00  0.00    +0.000 C 
BRANCH  25  26
ATOM     26  C   UNL     1     -16.325   4.285  12.528  0.00  0.00    +0.000 C 
BRANCH  26  27
ATOM     27  C   UNL     1     -16.288   5.161  11.254  0.00  0.00    +0.000 C 
BRANCH  27  28
ATOM     28  C   UNL     1     -15.996   4.330  10.019  0.00  0.00    +0.000 C 
BRANCH  28  29
ATOM     29  C   UNL     1     -16.230   5.162   8.770  0.00  0.00    +0.000 C 
BRANCH  29  30
ATOM     30  C   UNL     1     -16.936   4.359   7.715  0.00  0.00    +0.000 C 
BRANCH  30  31
ATOM     31  C   UNL     1     -16.751   2.910   7.973  0.00  0.00    +0.000 C 
BRANCH  31  32
ATOM     32  C   UNL     1     -18.033   2.136   7.804  0.00  0.00    +0.000 C 
BRANCH  32  33
ATOM     33  C   UNL     1     -18.166   1.120   8.925  0.00  0.00    +0.000 C 
BRANCH  33  35
ATOM     34  C   UNL     1     -16.837  -0.582  10.131  0.00  0.00    +0.000 C 
ATOM     35  C   UNL     1     -16.838   0.807   9.540  0.00  0.00    +0.000 C 
ENDBRANCH  33  35
ENDBRANCH  32  33
ENDBRANCH  31  32
ENDBRANCH  30  31
ENDBRANCH  29  30
ENDBRANCH  28  29
ENDBRANCH  27  28
ENDBRANCH  26  27
ENDBRANCH  25  26
ENDBRANCH  24  25
ENDBRANCH  23  24
ENDBRANCH   4  23
TORSDOF 16
BEGIN_RES LEU A  10
REMARK  2 active torsions:
REMARK  status: ('A' for Active; 'I' for Inactive)
REMARK    1  A    between atoms: CA   and  CB  
REMARK    2  A    between atoms: CB   and  CG  
ROOT
ATOM      1  CA  LEU A  10     -10.775  -4.871   5.898  1.00 25.14     0.177 C 
ENDROOT
BRANCH   1   2
ATOM      2  CB  LEU A  10     -12.191  -4.387   6.226  1.00 17.87     0.038 C 
BRANCH   2   3
ATOM      3  CG  LEU A  10     -12.674  -3.216   5.367  1.00 24.95    -0.020 C 
ATOM      4  CD2 LEU A  10     -13.504  -2.306   6.209  1.00 26.38     0.009 C 
ATOM      5  CD1 LEU A  10     -13.468  -3.712   4.171  1.00 28.12     0.009 C 
ENDBRANCH   2   3
ENDBRANCH   1   2
END_RES LEU A  10
BEGIN_RES CYS A  12
REMARK  2 active torsions:
REMARK  status: ('A' for Active; 'I' for Inactive)
REMARK    3  A    between atoms: CA   and  CB  
REMARK    4  A    between atoms: CB   and  SG  
ROOT
ATOM      6  CA  CYS A  12      -8.555   0.470   8.750  1.00 23.16     0.185 C 
ENDROOT
BRANCH   6   7
ATOM      7  CB  CYS A  12      -9.828   0.763   9.555  1.00 20.43     0.105 C 
BRANCH   7   8
ATOM      8  SG  CYS A  12     -10.953   2.006   8.848  1.00 24.64    -0.180 SA
ATOM      9  H04 CYS A  12     -11.904   1.392   8.131  1.00 24.64     0.101 HD
ENDBRANCH   7   8
ENDBRANCH   6   7
END_RES CYS A  12
BEGIN_RES GLN A  14
REMARK  3 active torsions:
REMARK  status: ('A' for Active; 'I' for Inactive)
REMARK    5  A    between atoms: CA   and  CB  
REMARK    6  A    between atoms: CB   and  CG  
REMARK    7  A    between atoms: CG   and  CD  
REMARK       I    between atoms: CD   and  NE2 
ROOT
ATOM     10  CA  GLN A  14      -4.645   5.402  11.377  1.00 10.43     0.177 C 
ENDROOT
BRANCH  10  11
ATOM     11  CB  GLN A  14      -5.541   5.549  12.608  1.00 14.45     0.044 C 
BRANCH  11  12
ATOM     12  CG  GLN A  14      -6.518   6.699  12.526  1.00 13.74     0.105 C 
BRANCH  12  13
ATOM     13  CD  GLN A  14      -7.934   6.236  12.276  1.00 16.29     0.215 C 
ATOM     14  NE2 GLN A  14      -8.791   6.415  13.257  1.00  8.57    -0.370 N 
ATOM     15  H06 GLN A  14      -9.753   6.127  13.147  1.00  8.57     0.159 HD
ATOM     16  H07 GLN A  14      -8.488   6.841  14.121  1.00  8.57     0.159 HD
ATOM     17  OE1 GLN A  14      -8.252   5.728  11.212  1.00 23.55    -0.274 OA
ENDBRANCH  12  13
ENDBRANCH  11  12
ENDBRANCH  10  11
END_RES GLN A  14
BEGIN_RES SER A  16
REMARK  2 active torsions:
REMARK  status: ('A' for Active; 'I' for Inactive)
REMARK    8  A    between atoms: CA   and  CB  
REMARK    9  A    between atoms: CB   and  OG  
ROOT
ATOM     18  CA  SER A  16      -1.305  10.019  14.282  1.00  2.34     0.200 C 
ENDROOT
BRANCH  18  19
ATOM     19  CB  SER A  16      -2.242   9.935  15.479  1.00  3.12     0.199 C 
BRANCH  19  20
ATOM     20  OG  SER A  16      -2.071   8.701  16.153  1.00  1.00    -0.398 OA
ATOM     21  H04 SER A  16      -2.114   7.981  15.519  1.00  1.00     0.209 HD
ENDBRANCH  19  20
ENDBRANCH  18  19
END_RES SER A  16
BEGIN_RES LEU A  32
REMARK  2 active torsions:
REMARK  status: ('A' for Active; 'I' for Inactive)
REMARK   10  A    between atoms: CA   and  CB  
REMARK   11  A    between atoms: CB   and  CG  
ROOT
ATOM     22  CA  LEU A  32     -10.272  -4.106   1.587  1.00 16.16     0.177 C 
ENDROOT
BRANCH  22  23
ATOM     23  CB  LEU A  32     -11.613  -3.858   0.880  1.00 12.35     0.038 C 
BRANCH  23  24
ATOM     24  CG  LEU A  32     -12.590  -5.035   1.073  1.00  9.77    -0.020 C 
ATOM     25  CD1 LEU A  32     -13.998  -4.611   0.728  1.00  4.35     0.009 C 
ATOM     26  CD2 LEU A  32     -12.190  -6.211   0.220  1.00 10.60     0.009 C 
ENDBRANCH  23  24
ENDBRANCH  22  23
END_RES LEU A  32
BEGIN_RES HIS A  38
REMARK  2 active torsions:
REMARK  status: ('A' for Active; 'I' for Inactive)
REMARK   12  A    between atoms: CA   and  CB  
REMARK   13  A    between atoms: CB   and  CG  
ROOT
ATOM     27  CA  HIS A  38     -10.959   4.941   1.621  1.00 16.94     0.182 C 
ENDROOT
BRANCH  27  28
ATOM     28  CB  HIS A  38     -11.810   4.840   2.881  1.00 15.47     0.095 C 
BRANCH  28  29
ATOM     29  CG  HIS A  38     -12.981   3.921   2.747  1.00 18.62     0.053 A 
ATOM     30  CD2 HIS A  38     -14.127   4.041   2.034  1.00 15.06     0.116 A 
ATOM     31  NE2 HIS A  38     -14.850   2.894   2.241  1.00 18.12    -0.359 N 
ATOM     32  CE1 HIS A  38     -14.176   2.100   3.050  1.00 14.78     0.207 A 
ATOM     33  H06 HIS A  38     -15.754   2.691   1.839  1.00 18.12     0.166 HD
ATOM     34  ND1 HIS A  38     -13.045   2.695   3.371  1.00 16.58    -0.247 NA
ENDBRANCH  28  29
ENDBRANCH  27  28
END_RES HIS A  38
BEGIN_RES TRP A  63
REMARK  2 active torsions:
REMARK  status: ('A' for Active; 'I' for Inactive)
REMARK   14  A    between atoms: CA   and  CB  
REMARK   15  A    between atoms: CB   and  CG  
ROOT
ATOM     35  CA  TRP A  63     -22.437   6.257   6.543  1.00 27.04     0.181 C 
ENDROOT
BRANCH  35  36
ATOM     36  CB  TRP A  63     -22.360   6.642   5.068  1.00 31.37     0.075 C 
BRANCH  36  37
ATOM     37  CG  TRP A  63     -20.955   6.856   4.546  1.00 34.37    -0.028 A 
ATOM     38  CD2 TRP A  63     -19.899   5.888   4.477  1.00 33.79    -0.002 A 
ATOM     39  CE3 TRP A  63     -19.773   4.555   4.875  1.00 32.99     0.014 A 
ATOM     40  CE2 TRP A  63     -18.797   6.516   3.856  1.00 35.84     0.042 A 
ATOM     41  CZ3 TRP A  63     -18.572   3.900   4.646  1.00 32.93     0.001 A 
ATOM     42  CH2 TRP A  63     -17.494   4.553   4.026  1.00 39.24     0.002 A 
ATOM     43  CZ2 TRP A  63     -17.588   5.858   3.624  1.00 37.99     0.030 A 
ATOM     44  NE1 TRP A  63     -19.170   7.800   3.567  1.00 37.98    -0.365 N 
ATOM     45  H06 TRP A  63     -18.589   8.494   3.118  1.00 37.98     0.165 HD
ATOM     46  CD1 TRP A  63     -20.464   7.993   3.986  1.00 38.16     0.096 A 
ENDBRANCH  36  37
ENDBRANCH  35  36
END_RES TRP A  63
BEGIN_RES LEU A  66
REMARK  2 active torsions:
REMARK  status: ('A' for Active; 'I' for Inactive)
REMARK   16  A    between atoms: CA   and  CB  
REMARK   17  A    between atoms: CB   and  CG  
ROOT
ATOM     47  CA  LEU A  66     -20.004   6.489  11.120  1.00 10.90     0.177 C 
ENDROOT
BRANCH  47  48
ATOM     48  CB  LEU A  66     -19.626   5.453  10.069  1.00 13.57     0.038 C 
BRANCH  48  49
ATOM     49  CG  LEU A  66     -19.691   3.983  10.481  1.00  8.73    -0.020 C 
ATOM     50  CD1 LEU A  66     -19.785   3.855  11.979  1.00 14.23     0.009 C 
ATOM     51  CD2 LEU A  66     -20.900   3.358   9.832  1.00  1.92     0.009 C 
ENDBRANCH  48  49
ENDBRANCH  47  48
END_RES LEU A  66
BEGIN_RES PHE A  70
REMARK  2 active torsions:
REMARK  status: ('A' for Active; 'I' for Inactive)
REMARK   18  A    between atoms: CA   and  CB  
REMARK   19  A    between atoms: CB   and  CG  
ROOT
ATOM     52  CA  PHE A  70     -14.974   9.434  13.165  1.00  8.78     0.180 C 
ENDROOT
BRANCH  52  53
ATOM     53  CB  PHE A  70     -14.707   9.132  11.681  1.00  6.33     0.073 C 
BRANCH  53  54
ATOM     54  CG  PHE A  70     -13.946   7.853  11.458  1.00  3.42    -0.056 A 
ATOM     55  CD1 PHE A  70     -13.488   7.098  12.527  1.00 13.88     0.007 A 
ATOM     56  CE1 PHE A  70     -12.737   5.929  12.312  1.00 12.71     0.001 A 
ATOM     57  CZ  PHE A  70     -12.443   5.513  11.013  1.00  4.21     0.000 A 
ATOM     58  CE2 PHE A  70     -12.896   6.257   9.939  1.00  2.83     0.001 A 
ATOM     59  CD2 PHE A  70     -13.646   7.424  10.165  1.00  1.00     0.007 A 
ENDBRANCH  53  54
ENDBRANCH  52  53
END_RES PHE A  70
BEGIN_RES TYR A  73
REMARK  3 active torsions:
REMARK  status: ('A' for Active; 'I' for Inactive)
REMARK   20  A    between atoms: CA   and  CB  
REMARK   21  A    between atoms: CB   and  CG  
REMARK   22  A    between atoms: CZ   and  OH  
ROOT
ATOM     60  CA  TYR A  73     -13.212  10.166  17.260  1.00 12.17     0.180 C 
ENDROOT
BRANCH  60  61
ATOM     61  CB  TYR A  73     -13.301   8.846  16.517  1.00 12.84     0.073 C 
BRANCH  61  62
ATOM     62  CG  TYR A  73     -13.599   7.693  17.410  1.00 15.89    -0.056 A 
ATOM     63  CD1 TYR A  73     -13.560   7.826  18.780  1.00 16.00     0.010 A 
ATOM     64  CE1 TYR A  73     -13.809   6.739  19.618  1.00 13.55     0.037 A 
ATOM     65  CZ  TYR A  73     -14.099   5.509  19.063  1.00 18.13     0.065 A 
ATOM     66  CE2 TYR A  73     -14.145   5.349  17.698  1.00 15.89     0.037 A 
ATOM     67  CD2 TYR A  73     -13.896   6.443  16.878  1.00 21.86     0.010 A 
BRANCH  65  68
ATOM     68  OH  TYR A  73     -14.353   4.427  19.870  1.00 12.12    -0.361 OA
ATOM     69  H08 TYR A  73     -15.272   4.166  19.776  1.00 12.12     0.217 HD
ENDBRANCH  65  68
ENDBRANCH  61  62
ENDBRANCH  60  61
END_RES TYR A  73
BEGIN_RES PHE A  77
REMARK  2 active torsions:
REMARK  status: ('A' for Active; 'I' for Inactive)
REMARK   23  A    between atoms: CA   and  CB  
REMARK   24  A    between atoms: CB   and  CG  
ROOT
ATOM     70  CA  PHE A  77      -8.400  10.581  20.110  1.00 17.17     0.180 C 
ENDROOT
BRANCH  70  71
ATOM     71  CB  PHE A  77      -8.228   9.750  18.851  1.00 10.44     0.073 C 
BRANCH  71  72
ATOM     72  CG  PHE A  77      -6.969   8.942  18.830  1.00  6.07    -0.056 A 
ATOM     73  CD2 PHE A  77      -6.100   9.027  17.765  1.00  9.61     0.007 A 
ATOM     74  CE2 PHE A  77      -4.928   8.282  17.738  1.00  1.00     0.001 A 
ATOM     75  CZ  PHE A  77      -4.619   7.440  18.793  1.00  1.92     0.000 A 
ATOM     76  CE1 PHE A  77      -5.476   7.344  19.866  1.00  9.25     0.001 A 
ATOM     77  CD1 PHE A  77      -6.650   8.096  19.880  1.00  9.63     0.007 A 
ENDBRANCH  71  72
ENDBRANCH  70  71
END_RES PHE A  77
BEGIN_RES LEU A  96
REMARK  2 active torsions:
REMARK  status: ('A' for Active; 'I' for Inactive)
REMARK   25  A    between atoms: CA   and  CB  
REMARK   26  A    between atoms: CB   and  CG  
ROOT
ATOM     78  CA  LEU A  96       0.717   6.481  17.359  1.00 16.08     0.177 C 
ENDROOT
BRANCH  78  79
ATOM     79  CB  LEU A  96      -0.370   7.101  18.230  1.00 18.83     0.038 C 
BRANCH  79  80
ATOM     80  CG  LEU A  96      -0.170   6.902  19.732  1.00 19.03    -0.020 C 
ATOM     81  CD1 LEU A  96       0.424   5.533  19.968  1.00 28.17     0.009 C 
ATOM     82  CD2 LEU A  96       0.783   7.939  20.280  1.00 22.01     0.009 C 
ENDBRANCH  79  80
ENDBRANCH  78  79
END_RES LEU A  96
BEGIN_RES VAL A  98
REMARK  1 active torsions:
REMARK  status: ('A' for Active; 'I' for Inactive)
REMARK   27  A    between atoms: CA   and  CB  
ROOT
ATOM     83  CA  VAL A  98      -3.928   2.082  14.897  1.00 19.83     0.180 C 
ENDROOT
BRANCH  83  84
ATOM     84  CB  VAL A  98      -5.203   2.807  15.281  1.00 17.87     0.009 C 
ATOM     85  CG2 VAL A  98      -4.908   4.258  15.562  1.00 29.90     0.012 C 
ATOM     86  CG1 VAL A  98      -5.820   2.140  16.492  1.00 14.79     0.012 C 
ENDBRANCH  83  84
END_RES VAL A  98
BEGIN_RES ASN A 112
REMARK  2 active torsions:
REMARK  status: ('A' for Active; 'I' for Inactive)
REMARK   28  A    between atoms: CA   and  CB  
REMARK   29  A    between atoms: CB   and  CG  
REMARK       I    between atoms: CG   and  ND2 
ROOT
ATOM     87  CA  ASN A 112     -11.790  -8.793  14.069  1.00 37.70     0.185 C 
ENDROOT
BRANCH  87  88
ATOM     88  CB  ASN A 112     -12.992  -7.945  14.465  1.00 26.24     0.137 C 
BRANCH  88  89
ATOM     89  CG  ASN A 112     -13.824  -8.572  15.561  1.00 21.77     0.217 C 
ATOM     90  ND2 ASN A 112     -14.976  -9.124  15.182  1.00  9.31    -0.370 N 
ATOM     91  H04 ASN A 112     -15.578  -9.557  15.868  1.00  9.31     0.159 HD
ATOM     92  H05 ASN A 112     -15.247  -9.110  14.209  1.00  9.31     0.159 HD
ATOM     93  OD1 ASN A 112     -13.442  -8.557  16.737  1.00 21.61    -0.274 OA
ENDBRANCH  88  89
ENDBRANCH  87  88
END_RES ASN A 112
BEGIN_RES PHE A 114
REMARK  2 active torsions:
REMARK  status: ('A' for Active; 'I' for Inactive)
REMARK   30  A    between atoms: CA   and  CB  
REMARK   31  A    between atoms: CB   and  CG  
ROOT
ATOM     94  CA  PHE A 114      -7.754  -3.619  17.012  1.00 26.06     0.180 C 
ENDROOT
BRANCH  94  95
ATOM     95  CB  PHE A 114      -8.890  -3.080  17.867  1.00 19.95     0.073 C 
BRANCH  95  96
ATOM     96  CG  PHE A 114      -8.781  -1.615  18.141  1.00 17.65    -0.056 A 
ATOM     97  CD1 PHE A 114      -8.699  -1.138  19.447  1.00 13.01     0.007 A 
ATOM     98  CE1 PHE A 114      -8.628   0.224  19.704  1.00  6.74     0.001 A 
ATOM     99  CZ  PHE A 114      -8.634   1.134  18.650  1.00  6.27     0.000 A 
ATOM    100  CE2 PHE A 114      -8.714   0.671  17.347  1.00 17.36     0.001 A 
ATOM    101  CD2 PHE A 114      -8.788  -0.703  17.095  1.00 18.39     0.007 A 
ENDBRANCH  95  96
ENDBRANCH  94  95
END_RES PHE A 114
BEGIN_RES VAL A 116
REMARK  1 active torsions:
REMARK  status: ('A' for Active; 'I' for Inactive)
REMARK   32  A    between atoms: CA   and  CB  
ROOT
ATOM    102  CA  VAL A 116      -2.467   0.283  18.565  1.00 13.48     0.180 C 
ENDROOT
BRANCH 102 103
ATOM    103  CB  VAL A 116      -3.101   1.238  19.599  1.00 20.86     0.009 C 
ATOM    104  CG1 VAL A 116      -2.978   2.682  19.105  1.00 25.01     0.012 C 
ATOM    105  CG2 VAL A 116      -4.540   0.863  19.867  1.00 25.34     0.012 C 
ENDBRANCH 102 103
END_RES VAL A 116
BEGIN_RES ILE A 123
REMARK  2 active torsions:
REMARK  status: ('A' for Active; 'I' for Inactive)
REMARK   33  A    between atoms: CA   and  CB  
REMARK   34  A    between atoms: CB   and  CG1 
ROOT
ATOM    106  CA  ILE A 123       1.557  -1.626  23.222  1.00 15.07     0.180 C 
ENDROOT
BRANCH 106 107
ATOM    107  CB  ILE A 123       1.697  -0.112  23.461  1.00 14.41     0.013 C 
ATOM    108  CG2 ILE A 123       3.098   0.206  23.954  1.00 18.35     0.012 C 
BRANCH 107 109
ATOM    109  CG1 ILE A 123       1.402   0.657  22.176  1.00 15.23     0.002 C 
ATOM    110  CD1 ILE A 123       0.226   1.597  22.288  1.00 14.67     0.005 C 
ENDBRANCH 107 109
ENDBRANCH 106 107
END_RES ILE A 123
BEGIN_RES LEU A 124
REMARK  2 active torsions:
REMARK  status: ('A' for Active; 'I' for Inactive)
REMARK   35  A    between atoms: CA   and  CB  
REMARK   36  A    between atoms: CB   and  CG  
ROOT
ATOM    111  CA  LEU A 124      -2.057  -2.686  23.524  1.00 11.86     0.177 C 
ENDROOT
BRANCH 111 112
ATOM    112  CB  LEU A 124      -2.698  -1.652  24.429  1.00 14.60     0.038 C 
BRANCH 112 113
ATOM    113  CG  LEU A 124      -2.616  -0.250  23.843  1.00 16.19    -0.020 C 
ATOM    114  CD1 LEU A 124      -4.029   0.207  23.436  1.00 22.07     0.009 C 
ATOM    115  CD2 LEU A 124      -1.993   0.680  24.853  1.00  9.12     0.009 C 
ENDBRANCH 112 113
ENDBRANCH 111 112
END_RES LEU A 124
BEGIN_RES PHE A 126
REMARK  2 active torsions:
REMARK  status: ('A' for Active; 'I' for Inactive)
REMARK   37  A    between atoms: CA   and  CB  
REMARK   38  A    between atoms: CB   and  CG  
ROOT
ATOM    116  CA  PHE A 126      -8.784  -4.792  22.233  1.00 23.15     0.180 C 
ENDROOT
BRANCH 116 117
ATOM    117  CB  PHE A 126      -9.823  -4.011  21.461  1.00 20.65     0.073 C 
BRANCH 117 118
ATOM    118  CG  PHE A 126     -10.940  -3.526  22.300  1.00 23.65    -0.056 A 
ATOM    119  CD2 PHE A 126     -10.726  -2.566  23.273  1.00 36.63     0.007 A 
ATOM    120  CE2 PHE A 126     -11.786  -2.106  24.067  1.00 36.27     0.001 A 
ATOM    121  CZ  PHE A 126     -13.062  -2.617  23.880  1.00 18.06     0.000 A 
ATOM    122  CE1 PHE A 126     -13.279  -3.574  22.909  1.00  5.50     0.001 A 
ATOM    123  CD1 PHE A 126     -12.219  -4.023  22.121  1.00 15.29     0.007 A 
ENDBRANCH 117 118
ENDBRANCH 116 117
END_RES PHE A 126
BEGIN_RES TRP A 131
REMARK  2 active torsions:
REMARK  status: ('A' for Active; 'I' for Inactive)
REMARK   39  A    between atoms: CA   and  CB  
REMARK   40  A    between atoms: CB   and  CG  
ROOT
ATOM    124  CA  TRP A 131      -8.096  -3.335  26.542  1.00 14.52     0.181 C 
ENDROOT
BRANCH 124 125
ATOM    125  CB  TRP A 131      -7.651  -1.877  26.607  1.00 13.06     0.075 C 
BRANCH 125 126
ATOM    126  CG  TRP A 131      -8.026  -1.058  25.391  1.00 16.97    -0.028 A 
ATOM    127  CD2 TRP A 131      -9.100  -0.119  25.295  1.00 11.34    -0.002 A 
ATOM    128  CE2 TRP A 131      -9.080   0.414  23.992  1.00  5.87     0.042 A 
ATOM    129  CE3 TRP A 131     -10.080   0.323  26.191  1.00  3.80     0.014 A 
ATOM    130  CZ2 TRP A 131     -10.001   1.371  23.561  1.00  1.35     0.030 A 
ATOM    131  NE1 TRP A 131      -8.042  -0.175  23.322  1.00 13.90    -0.365 N 
ATOM    132  CH2 TRP A 131     -10.951   1.787  24.461  1.00  1.00     0.002 A 
ATOM    133  CZ3 TRP A 131     -10.996   1.269  25.769  1.00  1.00     0.001 A 
ATOM    134  CD1 TRP A 131      -7.413  -1.058  24.168  1.00 17.22     0.096 A 
ATOM    135  H07 TRP A 131      -7.780   0.009  22.364  1.00 13.90     0.165 HD
ENDBRANCH 125 126
ENDBRANCH 124 125
END_RES TRP A 131
BEGIN_RES LEU A 148
REMARK  2 active torsions:
REMARK  status: ('A' for Active; 'I' for Inactive)
REMARK   41  A    between atoms: CA   and  CB  
REMARK   42  A    between atoms: CB   and  CG  
ROOT
ATOM    136  CA  LEU A 148      -9.018   3.259  29.295  1.00 16.99     0.177 C 
ENDROOT
BRANCH 136 137
ATOM    137  CB  LEU A 148      -8.166   2.574  28.236  1.00  6.39     0.038 C 
BRANCH 137 138
ATOM    138  CG  LEU A 148      -7.540   3.364  27.105  1.00  1.00    -0.020 C 
ATOM    139  CD2 LEU A 148      -8.605   4.028  26.282  1.00  1.00     0.009 C 
ATOM    140  CD1 LEU A 148      -6.725   2.408  26.252  1.00  2.71     0.009 C 
ENDBRANCH 137 138
ENDBRANCH 136 137
END_RES LEU A 148
BEGIN_RES THR A 154
REMARK  2 active torsions:
REMARK  status: ('A' for Active; 'I' for Inactive)
REMARK   43  A    between atoms: CA   and  CB  
REMARK   44  A    between atoms: CB   and  OG1 
ROOT
ATOM    141  CA  THR A 154     -15.990   3.959  24.426  1.00 20.45     0.205 C 
ENDROOT
BRANCH 141 142
ATOM    142  CB  THR A 154     -14.777   4.829  24.694  1.00 16.79     0.146 C 
ATOM    143  CG2 THR A 154     -13.668   4.498  23.713  1.00 20.24     0.042 C 
BRANCH 142 144
ATOM    144  OG1 THR A 154     -15.146   6.204  24.529  1.00 18.84    -0.393 OA
ATOM    145  H06 THR A 154     -14.439   6.767  24.852  1.00 18.84     0.210 HD
ENDBRANCH 142 144
ENDBRANCH 141 142
END_RES THR A 154
BEGIN_RES VAL A 158
REMARK  1 active torsions:
REMARK  status: ('A' for Active; 'I' for Inactive)
REMARK   45  A    between atoms: CA   and  CB  
ROOT
ATOM    146  CA  VAL A 158     -15.487  -0.189  19.892  1.00 15.49     0.180 C 
ENDROOT
BRANCH 146 147
ATOM    147  CB  VAL A 158     -14.291  -0.273  20.822  1.00  6.52     0.009 C 
ATOM    148  CG1 VAL A 158     -13.166  -1.056  20.185  1.00  1.00     0.012 C 
ATOM    149  CG2 VAL A 158     -13.845   1.117  21.157  1.00  5.99     0.012 C 
ENDBRANCH 146 147
END_RES VAL A 158
BEGIN_RES LEU A 161
REMARK  2 active torsions:
REMARK  status: ('A' for Active; 'I' for Inactive)
REMARK   46  A    between atoms: CA   and  CB  
REMARK   47  A    between atoms: CB   and  CG  
ROOT
ATOM    150  CA  LEU A 161     -18.031  -1.858  15.935  1.00 13.31     0.177 C 
ENDROOT
BRANCH 150 151
ATOM    151  CB  LEU A 161     -17.046  -0.706  16.001  1.00 14.13     0.038 C 
BRANCH 151 152
ATOM    152  CG  LEU A 161     -17.425   0.551  15.229  1.00 19.39    -0.020 C 
ATOM    153  CD2 LEU A 161     -18.793   1.031  15.651  1.00 27.75     0.009 C 
ATOM    154  CD1 LEU A 161     -17.420   0.239  13.757  1.00 18.59     0.009 C 
ENDBRANCH 151 152
ENDBRANCH 150 151
END_RES LEU A 161
BEGIN_RES GLN A 168
REMARK  3 active torsions:
REMARK  status: ('A' for Active; 'I' for Inactive)
REMARK   48  A    between atoms: CA   and  CB  
REMARK   49  A    between atoms: CB   and  CG  
REMARK   50  A    between atoms: CG   and  CD  
REMARK       I    between atoms: CD   and  NE2 
ROOT
ATOM    155  CA  GLN A 168     -22.035  -6.020   8.155  1.00 30.94     0.177 C 
ENDROOT
BRANCH 155 156
ATOM    156  CB  GLN A 168     -23.054  -5.218   8.946  1.00 41.76     0.044 C 
BRANCH 156 157
ATOM    157  CG  GLN A 168     -24.465  -5.731   8.846  1.00 61.20     0.105 C 
BRANCH 157 158
ATOM    158  CD  GLN A 168     -25.158  -5.238   7.590  1.00 75.49     0.215 C 
ATOM    159  NE2 GLN A 168     -26.062  -6.061   7.054  1.00 85.00    -0.370 N 
ATOM    160  H06 GLN A 168     -26.555  -5.790   6.215  1.00 85.00     0.159 HD
ATOM    161  H07 GLN A 168     -26.252  -6.953   7.488  1.00 85.00     0.159 HD
ATOM    162  OE1 GLN A 168     -24.883  -4.134   7.099  1.00 73.64    -0.274 OA
ENDBRANCH 157 158
ENDBRANCH 156 157
ENDBRANCH 155 156
END_RES GLN A 168
ENDMDL
MODEL 4
REMARK VINA RESULT:      -9.5      0.990      1.625
REMARK  Name = human_CD1d_DDM_pred.rank_0
REMARK  16 active torsions:
REMARK  status: ('A' for Active; 'I' for Inactive)
REMARK    1  A    between atoms: O_2  and  C_23
REMARK    2  A    between atoms: O_2  and  C_24
REMARK    3  A    between atoms: C_3  and  C_5
REMARK    4  A    between atoms: C_5  and  C_7
REMARK    5  A    between atoms: C_7  and  C_9
REMARK    6  A    between atoms: O_8  and  C_27
REMARK    7  A    between atoms: O_8  and  C_30
REMARK    8  A    between atoms: C_9  and  C_11
REMARK    9  A    between atoms: C_11  and  C_13
REMARK   10  A    between atoms: C_13  and  C_15
REMARK   11  A    between atoms: C_15  and  C_17
REMARK   12  A    between atoms: C_17  and  C_19
REMARK   13  A    between atoms: C_19  and  C_21
REMARK   14  A    between atoms: C_21  and  C_23
REMARK   15  A    between atoms: C_28  and  C_29
REMARK   16  A    between atoms: C_34  and  C_35
REMARK                            x       y       z     vdW  Elec       q    Type
REMARK                         _______ _______ _______ _____ _____    ______ ____
ROOT
ATOM      1  O   UNL     1     -10.917   1.538  12.539  0.00  0.00    +0.000 OA
ATOM      2  O   UNL     1     -13.150   2.893  15.764  0.00  0.00    +0.000 OA
ATOM      3  O   UNL     1     -14.367   1.409  13.663  0.00  0.00    +0.000 OA
ATOM      4  C   UNL     1     -12.308   1.353  12.431  0.00  0.00    +0.000 C 
ATOM      5  C   UNL     1     -12.973   1.462  13.817  0.00  0.00    +0.000 C 
ATOM      6  C   UNL     1     -12.578   2.803  14.486  0.00  0.00    +0.000 C 
ATOM      7  C   UNL     1     -11.054   2.873  14.544  0.00  0.00    +0.000 C 
ATOM      8  C   UNL     1     -10.641   2.911  13.065  0.00  0.00    +0.000 C 
ENDROOT
BRANCH   8  10
ATOM      9  O   UNL     1      -9.192   3.913  11.521  0.00  0.00    +0.000 OA
ATOM     10  C   UNL     1      -9.188   3.169  12.786  0.00  0.00    +0.000 C 
ENDBRANCH   8  10
BRANCH   7  11
ATOM     11  O   UNL     1     -10.512   3.901  15.338  0.00  0.00    +0.000 OA
BRANCH  11  16
ATOM     12  O   UNL     1      -8.435   4.653  16.135  0.00  0.00    +0.000 OA
ATOM     13  O   UNL     1     -10.379   7.541  17.337  0.00  0.00    +0.000 OA
ATOM     14  O   UNL     1     -11.227   5.410  19.057  0.00  0.00    +0.000 OA
ATOM     15  O   UNL     1     -10.975   2.804  18.047  0.00  0.00    +0.000 OA
ATOM     16  C   UNL     1      -9.464   3.666  16.318  0.00  0.00    +0.000 C 
ATOM     17  C   UNL     1     -10.011   3.811  17.745  0.00  0.00    +0.000 C 
ATOM     18  C   UNL     1     -10.717   5.181  17.772  0.00  0.00    +0.000 C 
ATOM     19  C   UNL     1      -9.675   6.292  17.418  0.00  0.00    +0.000 C 
ATOM     20  C   UNL     1      -8.995   6.000  16.075  0.00  0.00    +0.000 C 
BRANCH  20  22
ATOM     21  O   UNL     1      -6.663   6.214  15.971  0.00  0.00    +0.000 OA
ATOM     22  C   UNL     1      -7.851   6.929  15.814  0.00  0.00    +0.000 C 
ENDBRANCH  20  22
ENDBRANCH  11  16
ENDBRANCH   7  11
BRANCH   4  23
ATOM     23  O   UNL     1     -12.541   0.083  11.909  0.00  0.00    +0.000 OA
BRANCH  23  24
ATOM     24  C   UNL     1     -13.396   0.126  10.763  0.00  0.00    +0.000 C 
BRANCH  24  25
ATOM     25  C   UNL     1     -14.546  -0.888  10.924  0.00  0.00    +0.000 C 
BRANCH  25  26
ATOM     26  C   UNL     1     -15.408  -0.869   9.663  0.00  0.00    +0.000 C 
BRANCH  26  27
ATOM     27  C   UNL     1     -16.847  -0.420  10.009  0.00  0.00    +0.000 C 
BRANCH  27  28
ATOM     28  C   UNL     1     -17.077   1.033   9.640  0.00  0.00    +0.000 C 
BRANCH  28  29
ATOM     29  C   UNL     1     -18.321   1.156   8.778  0.00  0.00    +0.000 C 
BRANCH  29  30
ATOM     30  C   UNL     1     -18.128   2.187   7.702  0.00  0.00    +0.000 C 
BRANCH  30  31
ATOM     31  C   UNL     1     -16.767   2.769   7.796  0.00  0.00    +0.000 C 
BRANCH  31  32
ATOM     32  C   UNL     1     -16.801   4.267   7.959  0.00  0.00    +0.000 C 
BRANCH  32  33
ATOM     33  C   UNL     1     -15.571   4.877   7.311  0.00  0.00    +0.000 C 
BRANCH  33  35
ATOM     34  C   UNL     1     -13.287   4.381   6.500  0.00  0.00    +0.000 C 
ATOM     35  C   UNL     1     -14.666   3.823   6.753  0.00  0.00    +0.000 C 
ENDBRANCH  33  35
ENDBRANCH  32  33
ENDBRANCH  31  32
ENDBRANCH  30  31
ENDBRANCH  29  30
ENDBRANCH  28  29
ENDBRANCH  27  28
ENDBRANCH  26  27
ENDBRANCH  25  26
ENDBRANCH  24  25
ENDBRANCH  23  24
ENDBRANCH   4  23
TORSDOF 16
BEGIN_RES LEU A  10
REMARK  2 active torsions:
REMARK  status: ('A' for Active; 'I' for Inactive)
REMARK    1  A    between atoms: CA   and  CB  
REMARK    2  A    between atoms: CB   and  CG  
ROOT
ATOM      1  CA  LEU A  10     -10.775  -4.871   5.898  1.00 25.14     0.177 C 
ENDROOT
BRANCH   1   2
ATOM      2  CB  LEU A  10     -12.191  -4.387   6.226  1.00 17.87     0.038 C 
BRANCH   2   3
ATOM      3  CG  LEU A  10     -12.418  -2.892   5.994  1.00 24.95    -0.020 C 
ATOM      4  CD2 LEU A  10     -13.651  -2.469   6.719  1.00 26.38     0.009 C 
ATOM      5  CD1 LEU A  10     -12.537  -2.584   4.511  1.00 28.12     0.009 C 
ENDBRANCH   2   3
ENDBRANCH   1   2
END_RES LEU A  10
BEGIN_RES CYS A  12
REMARK  2 active torsions:
REMARK  status: ('A' for Active; 'I' for Inactive)
REMARK    3  A    between atoms: CA   and  CB  
REMARK    4  A    between atoms: CB   and  SG  
ROOT
ATOM      6  CA  CYS A  12      -8.555   0.470   8.750  1.00 23.16     0.185 C 
ENDROOT
BRANCH   6   7
ATOM      7  CB  CYS A  12      -9.828   0.763   9.555  1.00 20.43     0.105 C 
BRANCH   7   8
ATOM      8  SG  CYS A  12     -10.900   2.082   8.905  1.00 24.64    -0.180 SA
ATOM      9  H04 CYS A  12     -10.772   3.177   9.665  1.00 24.64     0.101 HD
ENDBRANCH   7   8
ENDBRANCH   6   7
END_RES CYS A  12
BEGIN_RES GLN A  14
REMARK  3 active torsions:
REMARK  status: ('A' for Active; 'I' for Inactive)
REMARK    5  A    between atoms: CA   and  CB  
REMARK    6  A    between atoms: CB   and  CG  
REMARK    7  A    between atoms: CG   and  CD  
REMARK       I    between atoms: CD   and  NE2 
ROOT
ATOM     10  CA  GLN A  14      -4.645   5.402  11.377  1.00 10.43     0.177 C 
ENDROOT
BRANCH  10  11
ATOM     11  CB  GLN A  14      -5.541   5.549  12.608  1.00 14.45     0.044 C 
BRANCH  11  12
ATOM     12  CG  GLN A  14      -6.541   6.678  12.512  1.00 13.74     0.105 C 
BRANCH  12  13
ATOM     13  CD  GLN A  14      -5.911   8.029  12.754  1.00 16.29     0.215 C 
ATOM     14  NE2 GLN A  14      -5.125   8.130  13.804  1.00  8.57    -0.370 N 
ATOM     15  H06 GLN A  14      -4.675   9.009  14.015  1.00  8.57     0.159 HD
ATOM     16  H07 GLN A  14      -4.972   7.329  14.400  1.00  8.57     0.159 HD
ATOM     17  OE1 GLN A  14      -6.125   8.968  12.003  1.00 23.55    -0.274 OA
ENDBRANCH  12  13
ENDBRANCH  11  12
ENDBRANCH  10  11
END_RES GLN A  14
BEGIN_RES SER A  16
REMARK  2 active torsions:
REMARK  status: ('A' for Active; 'I' for Inactive)
REMARK    8  A    between atoms: CA   and  CB  
REMARK    9  A    between atoms: CB   and  OG  
ROOT
ATOM     18  CA  SER A  16      -1.305  10.019  14.282  1.00  2.34     0.200 C 
ENDROOT
BRANCH  18  19
ATOM     19  CB  SER A  16      -2.242   9.935  15.479  1.00  3.12     0.199 C 
BRANCH  19  20
ATOM     20  OG  SER A  16      -2.028   8.727  16.188  1.00  1.00    -0.398 OA
ATOM     21  H04 SER A  16      -1.507   8.127  15.649  1.00  1.00     0.209 HD
ENDBRANCH  19  20
ENDBRANCH  18  19
END_RES SER A  16
BEGIN_RES LEU A  32
REMARK  2 active torsions:
REMARK  status: ('A' for Active; 'I' for Inactive)
REMARK   10  A    between atoms: CA   and  CB  
REMARK   11  A    between atoms: CB   and  CG  
ROOT
ATOM     22  CA  LEU A  32     -10.272  -4.106   1.587  1.00 16.16     0.177 C 
ENDROOT
BRANCH  22  23
ATOM     23  CB  LEU A  32     -11.613  -3.858   0.880  1.00 12.35     0.038 C 
BRANCH  23  24
ATOM     24  CG  LEU A  32     -12.519  -5.105   0.914  1.00  9.77    -0.020 C 
ATOM     25  CD1 LEU A  32     -13.008  -5.362   2.320  1.00  4.35     0.009 C 
ATOM     26  CD2 LEU A  32     -13.697  -4.939  -0.011  1.00 10.60     0.009 C 
ENDBRANCH  23  24
ENDBRANCH  22  23
END_RES LEU A  32
BEGIN_RES HIS A  38
REMARK  2 active torsions:
REMARK  status: ('A' for Active; 'I' for Inactive)
REMARK   12  A    between atoms: CA   and  CB  
REMARK   13  A    between atoms: CB   and  CG  
ROOT
ATOM     27  CA  HIS A  38     -10.959   4.941   1.621  1.00 16.94     0.182 C 
ENDROOT
BRANCH  27  28
ATOM     28  CB  HIS A  38     -11.810   4.840   2.881  1.00 15.47     0.095 C 
BRANCH  28  29
ATOM     29  CG  HIS A  38     -12.992   3.936   2.741  1.00 18.62     0.053 A 
ATOM     30  CD2 HIS A  38     -14.146   4.083   2.048  1.00 15.06     0.116 A 
ATOM     31  NE2 HIS A  38     -14.877   2.938   2.237  1.00 18.12    -0.359 N 
ATOM     32  CE1 HIS A  38     -14.199   2.118   3.016  1.00 14.78     0.207 A 
ATOM     33  H06 HIS A  38     -15.789   2.753   1.843  1.00 18.12     0.166 HD
ATOM     34  ND1 HIS A  38     -13.058   2.695   3.336  1.00 16.58    -0.247 NA
ENDBRANCH  28  29
ENDBRANCH  27  28
END_RES HIS A  38
BEGIN_RES TRP A  63
REMARK  2 active torsions:
REMARK  status: ('A' for Active; 'I' for Inactive)
REMARK   14  A    between atoms: CA   and  CB  
REMARK   15  A    between atoms: CB   and  CG  
ROOT
ATOM     35  CA  TRP A  63     -22.437   6.257   6.543  1.00 27.04     0.181 C 
ENDROOT
BRANCH  35  36
ATOM     36  CB  TRP A  63     -22.360   6.642   5.068  1.00 31.37     0.075 C 
BRANCH  36  37
ATOM     37  CG  TRP A  63     -20.956   6.875   4.551  1.00 34.37    -0.028 A 
ATOM     38  CD2 TRP A  63     -19.881   5.927   4.503  1.00 33.79    -0.002 A 
ATOM     39  CE3 TRP A  63     -19.732   4.603   4.923  1.00 32.99     0.014 A 
ATOM     40  CE2 TRP A  63     -18.788   6.567   3.879  1.00 35.84     0.042 A 
ATOM     41  CZ3 TRP A  63     -18.516   3.968   4.712  1.00 32.93     0.001 A 
ATOM     42  CH2 TRP A  63     -17.448   4.632   4.089  1.00 39.24     0.002 A 
ATOM     43  CZ2 TRP A  63     -17.565   5.929   3.665  1.00 37.99     0.030 A 
ATOM     44  NE1 TRP A  63     -19.184   7.838   3.567  1.00 37.98    -0.365 N 
ATOM     45  H06 TRP A  63     -18.613   8.536   3.110  1.00 37.98     0.165 HD
ATOM     46  CD1 TRP A  63     -20.484   8.013   3.976  1.00 38.16     0.096 A 
ENDBRANCH  36  37
ENDBRANCH  35  36
END_RES TRP A  63
BEGIN_RES LEU A  66
REMARK  2 active torsions:
REMARK  status: ('A' for Active; 'I' for Inactive)
REMARK   16  A    between atoms: CA   and  CB  
REMARK   17  A    between atoms: CB   and  CG  
ROOT
ATOM     47  CA  LEU A  66     -20.004   6.489  11.120  1.00 10.90     0.177 C 
ENDROOT
BRANCH  47  48
ATOM     48  CB  LEU A  66     -19.626   5.453  10.069  1.00 13.57     0.038 C 
BRANCH  48  49
ATOM     49  CG  LEU A  66     -19.469   4.007  10.537  1.00  8.73    -0.020 C 
ATOM     50  CD1 LEU A  66     -18.997   3.959  11.967  1.00 14.23     0.009 C 
ATOM     51  CD2 LEU A  66     -20.803   3.316  10.410  1.00  1.92     0.009 C 
ENDBRANCH  48  49
ENDBRANCH  47  48
END_RES LEU A  66
BEGIN_RES PHE A  70
REMARK  2 active torsions:
REMARK  status: ('A' for Active; 'I' for Inactive)
REMARK   18  A    between atoms: CA   and  CB  
REMARK   19  A    between atoms: CB   and  CG  
ROOT
ATOM     52  CA  PHE A  70     -14.974   9.434  13.165  1.00  8.78     0.180 C 
ENDROOT
BRANCH  52  53
ATOM     53  CB  PHE A  70     -14.707   9.132  11.681  1.00  6.33     0.073 C 
BRANCH  53  54
ATOM     54  CG  PHE A  70     -13.961   7.845  11.457  1.00  3.42    -0.056 A 
ATOM     55  CD1 PHE A  70     -13.779   7.336  10.180  1.00 13.88     0.007 A 
ATOM     56  CE1 PHE A  70     -13.122   6.109   9.982  1.00 12.71     0.001 A 
ATOM     57  CZ  PHE A  70     -12.642   5.385  11.074  1.00  4.21     0.000 A 
ATOM     58  CE2 PHE A  70     -12.814   5.884  12.352  1.00  2.83     0.001 A 
ATOM     59  CD2 PHE A  70     -13.473   7.111  12.539  1.00  1.00     0.007 A 
ENDBRANCH  53  54
ENDBRANCH  52  53
END_RES PHE A  70
BEGIN_RES TYR A  73
REMARK  3 active torsions:
REMARK  status: ('A' for Active; 'I' for Inactive)
REMARK   20  A    between atoms: CA   and  CB  
REMARK   21  A    between atoms: CB   and  CG  
REMARK   22  A    between atoms: CZ   and  OH  
ROOT
ATOM     60  CA  TYR A  73     -13.212  10.166  17.260  1.00 12.17     0.180 C 
ENDROOT
BRANCH  60  61
ATOM     61  CB  TYR A  73     -13.301   8.846  16.517  1.00 12.84     0.073 C 
BRANCH  61  62
ATOM     62  CG  TYR A  73     -13.768   7.723  17.376  1.00 15.89    -0.056 A 
ATOM     63  CD1 TYR A  73     -14.045   6.485  16.839  1.00 16.00     0.010 A 
ATOM     64  CE1 TYR A  73     -14.512   5.441  17.637  1.00 13.55     0.037 A 
ATOM     65  CZ  TYR A  73     -14.701   5.654  18.988  1.00 18.13     0.065 A 
ATOM     66  CE2 TYR A  73     -14.431   6.880  19.549  1.00 15.89     0.037 A 
ATOM     67  CD2 TYR A  73     -13.966   7.909  18.739  1.00 21.86     0.010 A 
BRANCH  65  68
ATOM     68  OH  TYR A  73     -15.155   4.638  19.793  1.00 12.12    -0.361 OA
ATOM     69  H08 TYR A  73     -15.402   4.994  20.650  1.00 12.12     0.217 HD
ENDBRANCH  65  68
ENDBRANCH  61  62
ENDBRANCH  60  61
END_RES TYR A  73
BEGIN_RES PHE A  77
REMARK  2 active torsions:
REMARK  status: ('A' for Active; 'I' for Inactive)
REMARK   23  A    between atoms: CA   and  CB  
REMARK   24  A    between atoms: CB   and  CG  
ROOT
ATOM     70  CA  PHE A  77      -8.400  10.581  20.110  1.00 17.17     0.180 C 
ENDROOT
BRANCH  70  71
ATOM     71  CB  PHE A  77      -8.228   9.750  18.851  1.00 10.44     0.073 C 
BRANCH  71  72
ATOM     72  CG  PHE A  77      -7.079   8.793  18.912  1.00  6.07    -0.056 A 
ATOM     73  CD2 PHE A  77      -7.158   7.653  19.679  1.00  9.61     0.007 A 
ATOM     74  CE2 PHE A  77      -6.096   6.758  19.741  1.00  1.00     0.001 A 
ATOM     75  CZ  PHE A  77      -4.939   7.008  19.021  1.00  1.92     0.000 A 
ATOM     76  CE1 PHE A  77      -4.845   8.142  18.248  1.00  9.25     0.001 A 
ATOM     77  CD1 PHE A  77      -5.917   9.033  18.197  1.00  9.63     0.007 A 
ENDBRANCH  71  72
ENDBRANCH  70  71
END_RES PHE A  77
BEGIN_RES LEU A  96
REMARK  2 active torsions:
REMARK  status: ('A' for Active; 'I' for Inactive)
REMARK   25  A    between atoms: CA   and  CB  
REMARK   26  A    between atoms: CB   and  CG  
ROOT
ATOM     78  CA  LEU A  96       0.717   6.481  17.359  1.00 16.08     0.177 C 
ENDROOT
BRANCH  78  79
ATOM     79  CB  LEU A  96      -0.370   7.101  18.230  1.00 18.83     0.038 C 
BRANCH  79  80
ATOM     80  CG  LEU A  96      -0.185   6.879  19.731  1.00 19.03    -0.020 C 
ATOM     81  CD1 LEU A  96       0.412   5.508  19.951  1.00 28.17     0.009 C 
ATOM     82  CD2 LEU A  96       0.760   7.910  20.304  1.00 22.01     0.009 C 
ENDBRANCH  79  80
ENDBRANCH  78  79
END_RES LEU A  96
BEGIN_RES VAL A  98
REMARK  1 active torsions:
REMARK  status: ('A' for Active; 'I' for Inactive)
REMARK   27  A    between atoms: CA   and  CB  
ROOT
ATOM     83  CA  VAL A  98      -3.928   2.082  14.897  1.00 19.83     0.180 C 
ENDROOT
BRANCH  83  84
ATOM     84  CB  VAL A  98      -5.203   2.807  15.281  1.00 17.87     0.009 C 
ATOM     85  CG2 VAL A  98      -5.155   3.204  16.734  1.00 29.90     0.012 C 
ATOM     86  CG1 VAL A  98      -6.395   1.915  15.007  1.00 14.79     0.012 C 
ENDBRANCH  83  84
END_RES VAL A  98
BEGIN_RES ASN A 112
REMARK  2 active torsions:
REMARK  status: ('A' for Active; 'I' for Inactive)
REMARK   28  A    between atoms: CA   and  CB  
REMARK   29  A    between atoms: CB   and  CG  
REMARK       I    between atoms: CG   and  ND2 
ROOT
ATOM     87  CA  ASN A 112     -11.790  -8.793  14.069  1.00 37.70     0.185 C 
ENDROOT
BRANCH  87  88
ATOM     88  CB  ASN A 112     -12.992  -7.945  14.465  1.00 26.24     0.137 C 
BRANCH  88  89
ATOM     89  CG  ASN A 112     -13.820  -8.568  15.566  1.00 21.77     0.217 C 
ATOM     90  ND2 ASN A 112     -14.971  -9.127  15.192  1.00  9.31    -0.370 N 
ATOM     91  H04 ASN A 112     -15.571  -9.558  15.881  1.00  9.31     0.159 HD
ATOM     92  H05 ASN A 112     -15.244  -9.118  14.220  1.00  9.31     0.159 HD
ATOM     93  OD1 ASN A 112     -13.436  -8.546  16.741  1.00 21.61    -0.274 OA
ENDBRANCH  88  89
ENDBRANCH  87  88
END_RES ASN A 112
BEGIN_RES PHE A 114
REMARK  2 active torsions:
REMARK  status: ('A' for Active; 'I' for Inactive)
REMARK   30  A    between atoms: CA   and  CB  
REMARK   31  A    between atoms: CB   and  CG  
ROOT
ATOM     94  CA  PHE A 114      -7.754  -3.619  17.012  1.00 26.06     0.180 C 
ENDROOT
BRANCH  94  95
ATOM     95  CB  PHE A 114      -8.890  -3.080  17.867  1.00 19.95     0.073 C 
BRANCH  95  96
ATOM     96  CG  PHE A 114      -8.696  -1.657  18.281  1.00 17.65    -0.056 A 
ATOM     97  CD1 PHE A 114      -8.122  -0.734  17.411  1.00 13.01     0.007 A 
ATOM     98  CE1 PHE A 114      -7.915   0.581  17.805  1.00  6.74     0.001 A 
ATOM     99  CZ  PHE A 114      -8.284   0.993  19.083  1.00  6.27     0.000 A 
ATOM    100  CE2 PHE A 114      -8.857   0.083  19.956  1.00 17.36     0.001 A 
ATOM    101  CD2 PHE A 114      -9.062  -1.240  19.553  1.00 18.39     0.007 A 
ENDBRANCH  95  96
ENDBRANCH  94  95
END_RES PHE A 114
BEGIN_RES VAL A 116
REMARK  1 active torsions:
REMARK  status: ('A' for Active; 'I' for Inactive)
REMARK   32  A    between atoms: CA   and  CB  
ROOT
ATOM    102  CA  VAL A 116      -2.467   0.283  18.565  1.00 13.48     0.180 C 
ENDROOT
BRANCH 102 103
ATOM    103  CB  VAL A 116      -3.101   1.238  19.599  1.00 20.86     0.009 C 
ATOM    104  CG1 VAL A 116      -2.684   2.678  19.289  1.00 25.01     0.012 C 
ATOM    105  CG2 VAL A 116      -4.604   1.086  19.621  1.00 25.34     0.012 C 
ENDBRANCH 102 103
END_RES VAL A 116
BEGIN_RES ILE A 123
REMARK  2 active torsions:
REMARK  status: ('A' for Active; 'I' for Inactive)
REMARK   33  A    between atoms: CA   and  CB  
REMARK   34  A    between atoms: CB   and  CG1 
ROOT
ATOM    106  CA  ILE A 123       1.557  -1.626  23.222  1.00 15.07     0.180 C 
ENDROOT
BRANCH 106 107
ATOM    107  CB  ILE A 123       1.697  -0.112  23.461  1.00 14.41     0.013 C 
ATOM    108  CG2 ILE A 123       3.102   0.208  23.942  1.00 18.35     0.012 C 
BRANCH 107 109
ATOM    109  CG1 ILE A 123       1.390   0.658  22.179  1.00 15.23     0.002 C 
ATOM    110  CD1 ILE A 123       0.219   1.602  22.305  1.00 14.67     0.005 C 
ENDBRANCH 107 109
ENDBRANCH 106 107
END_RES ILE A 123
BEGIN_RES LEU A 124
REMARK  2 active torsions:
REMARK  status: ('A' for Active; 'I' for Inactive)
REMARK   35  A    between atoms: CA   and  CB  
REMARK   36  A    between atoms: CB   and  CG  
ROOT
ATOM    111  CA  LEU A 124      -2.057  -2.686  23.524  1.00 11.86     0.177 C 
ENDROOT
BRANCH 111 112
ATOM    112  CB  LEU A 124      -2.698  -1.652  24.429  1.00 14.60     0.038 C 
BRANCH 112 113
ATOM    113  CG  LEU A 124      -2.604  -0.248  23.850  1.00 16.19    -0.020 C 
ATOM    114  CD1 LEU A 124      -3.998   0.186  23.358  1.00 22.07     0.009 C 
ATOM    115  CD2 LEU A 124      -2.059   0.691  24.895  1.00  9.12     0.009 C 
ENDBRANCH 112 113
ENDBRANCH 111 112
END_RES LEU A 124
BEGIN_RES PHE A 126
REMARK  2 active torsions:
REMARK  status: ('A' for Active; 'I' for Inactive)
REMARK   37  A    between atoms: CA   and  CB  
REMARK   38  A    between atoms: CB   and  CG  
ROOT
ATOM    116  CA  PHE A 126      -8.784  -4.792  22.233  1.00 23.15     0.180 C 
ENDROOT
BRANCH 116 117
ATOM    117  CB  PHE A 126      -9.823  -4.011  21.461  1.00 20.65     0.073 C 
BRANCH 117 118
ATOM    118  CG  PHE A 126     -10.955  -3.553  22.294  1.00 23.65    -0.056 A 
ATOM    119  CD2 PHE A 126     -10.784  -2.543  23.225  1.00 36.63     0.007 A 
ATOM    120  CE2 PHE A 126     -11.858  -2.109  24.013  1.00 36.27     0.001 A 
ATOM    121  CZ  PHE A 126     -13.107  -2.694  23.863  1.00 18.06     0.000 A 
ATOM    122  CE1 PHE A 126     -13.282  -3.700  22.934  1.00  5.50     0.001 A 
ATOM    123  CD1 PHE A 126     -12.208  -4.124  22.152  1.00 15.29     0.007 A 
ENDBRANCH 117 118
ENDBRANCH 116 117
END_RES PHE A 126
BEGIN_RES TRP A 131
REMARK  2 active torsions:
REMARK  status: ('A' for Active; 'I' for Inactive)
REMARK   39  A    between atoms: CA   and  CB  
REMARK   40  A    between atoms: CB   and  CG  
ROOT
ATOM    124  CA  TRP A 131      -8.096  -3.335  26.542  1.00 14.52     0.181 C 
ENDROOT
BRANCH 124 125
ATOM    125  CB  TRP A 131      -7.651  -1.877  26.607  1.00 13.06     0.075 C 
BRANCH 125 126
ATOM    126  CG  TRP A 131      -8.021  -1.060  25.389  1.00 16.97    -0.028 A 
ATOM    127  CD2 TRP A 131      -9.107  -0.136  25.281  1.00 11.34    -0.002 A 
ATOM    128  CE2 TRP A 131      -9.077   0.402  23.980  1.00  5.87     0.042 A 
ATOM    129  CE3 TRP A 131     -10.106   0.288  26.165  1.00  3.80     0.014 A 
ATOM    130  CZ2 TRP A 131     -10.007   1.346  23.540  1.00  1.35     0.030 A 
ATOM    131  NE1 TRP A 131      -8.022  -0.169  23.323  1.00 13.90    -0.365 N 
ATOM    132  CH2 TRP A 131     -10.975   1.745  24.427  1.00  1.00     0.002 A 
ATOM    133  CZ3 TRP A 131     -11.031   1.221  25.733  1.00  1.00     0.001 A 
ATOM    134  CD1 TRP A 131      -7.391  -1.045  24.175  1.00 17.22     0.096 A 
ATOM    135  H07 TRP A 131      -7.750   0.022  22.369  1.00 13.90     0.165 HD
ENDBRANCH 125 126
ENDBRANCH 124 125
END_RES TRP A 131
BEGIN_RES LEU A 148
REMARK  2 active torsions:
REMARK  status: ('A' for Active; 'I' for Inactive)
REMARK   41  A    between atoms: CA   and  CB  
REMARK   42  A    between atoms: CB   and  CG  
ROOT
ATOM    136  CA  LEU A 148      -9.018   3.259  29.295  1.00 16.99     0.177 C 
ENDROOT
BRANCH 136 137
ATOM    137  CB  LEU A 148      -8.166   2.574  28.236  1.00  6.39     0.038 C 
BRANCH 137 138
ATOM    138  CG  LEU A 148      -8.008   3.171  26.853  1.00  1.00    -0.020 C 
ATOM    139  CD2 LEU A 148      -6.813   2.580  26.164  1.00  1.00     0.009 C 
ATOM    140  CD1 LEU A 148      -7.850   4.674  26.999  1.00  2.71     0.009 C 
ENDBRANCH 137 138
ENDBRANCH 136 137
END_RES LEU A 148
BEGIN_RES THR A 154
REMARK  2 active torsions:
REMARK  status: ('A' for Active; 'I' for Inactive)
REMARK   43  A    between atoms: CA   and  CB  
REMARK   44  A    between atoms: CB   and  OG1 
ROOT
ATOM    141  CA  THR A 154     -15.990   3.959  24.426  1.00 20.45     0.205 C 
ENDROOT
BRANCH 141 142
ATOM    142  CB  THR A 154     -14.777   4.829  24.694  1.00 16.79     0.146 C 
ATOM    143  CG2 THR A 154     -13.675   4.510  23.702  1.00 20.24     0.042 C 
BRANCH 142 144
ATOM    144  OG1 THR A 154     -15.150   6.205  24.545  1.00 18.84    -0.393 OA
ATOM    145  H06 THR A 154     -14.400   6.707  24.220  1.00 18.84     0.210 HD
ENDBRANCH 142 144
ENDBRANCH 141 142
END_RES THR A 154
BEGIN_RES VAL A 158
REMARK  1 active torsions:
REMARK  status: ('A' for Active; 'I' for Inactive)
REMARK   45  A    between atoms: CA   and  CB  
ROOT
ATOM    146  CA  VAL A 158     -15.487  -0.189  19.892  1.00 15.49     0.180 C 
ENDROOT
BRANCH 146 147
ATOM    147  CB  VAL A 158     -14.291  -0.273  20.822  1.00  6.52     0.009 C 
ATOM    148  CG1 VAL A 158     -13.253  -1.229  20.281  1.00  1.00     0.012 C 
ATOM    149  CG2 VAL A 158     -13.713   1.099  20.985  1.00  5.99     0.012 C 
ENDBRANCH 146 147
END_RES VAL A 158
BEGIN_RES LEU A 161
REMARK  2 active torsions:
REMARK  status: ('A' for Active; 'I' for Inactive)
REMARK   46  A    between atoms: CA   and  CB  
REMARK   47  A    between atoms: CB   and  CG  
ROOT
ATOM    150  CA  LEU A 161     -18.031  -1.858  15.935  1.00 13.31     0.177 C 
ENDROOT
BRANCH 150 151
ATOM    151  CB  LEU A 161     -17.046  -0.706  16.001  1.00 14.13     0.038 C 
BRANCH 151 152
ATOM    152  CG  LEU A 161     -17.586   0.666  15.617  1.00 19.39    -0.020 C 
ATOM    153  CD2 LEU A 161     -17.683   0.788  14.115  1.00 27.75     0.009 C 
ATOM    154  CD1 LEU A 161     -16.662   1.722  16.161  1.00 18.59     0.009 C 
ENDBRANCH 151 152
ENDBRANCH 150 151
END_RES LEU A 161
BEGIN_RES GLN A 168
REMARK  3 active torsions:
REMARK  status: ('A' for Active; 'I' for Inactive)
REMARK   48  A    between atoms: CA   and  CB  
REMARK   49  A    between atoms: CB   and  CG  
REMARK   50  A    between atoms: CG   and  CD  
REMARK       I    between atoms: CD   and  NE2 
ROOT
ATOM    155  CA  GLN A 168     -22.035  -6.020   8.155  1.00 30.94     0.177 C 
ENDROOT
BRANCH 155 156
ATOM    156  CB  GLN A 168     -23.054  -5.218   8.946  1.00 41.76     0.044 C 
BRANCH 156 157
ATOM    157  CG  GLN A 168     -24.471  -5.708   8.816  1.00 61.20     0.105 C 
BRANCH 157 158
ATOM    158  CD  GLN A 168     -25.041  -5.432   7.439  1.00 75.49     0.215 C 
ATOM    159  NE2 GLN A 168     -25.459  -6.496   6.749  1.00 85.00    -0.370 N 
ATOM    160  H06 GLN A 168     -25.846  -6.377   5.824  1.00 85.00     0.159 HD
ATOM    161  H07 GLN A 168     -25.387  -7.419   7.153  1.00 85.00     0.159 HD
ATOM    162  OE1 GLN A 168     -25.102  -4.278   6.992  1.00 73.64    -0.274 OA
ENDBRANCH 157 158
ENDBRANCH 156 157
ENDBRANCH 155 156
END_RES GLN A 168
ENDMDL
MODEL 5
REMARK VINA RESULT:      -9.5      1.693      4.746
REMARK  Name = human_CD1d_DDM_pred.rank_0
REMARK  16 active torsions:
REMARK  status: ('A' for Active; 'I' for Inactive)
REMARK    1  A    between atoms: O_2  and  C_23
REMARK    2  A    between atoms: O_2  and  C_24
REMARK    3  A    between atoms: C_3  and  C_5
REMARK    4  A    between atoms: C_5  and  C_7
REMARK    5  A    between atoms: C_7  and  C_9
REMARK    6  A    between atoms: O_8  and  C_27
REMARK    7  A    between atoms: O_8  and  C_30
REMARK    8  A    between atoms: C_9  and  C_11
REMARK    9  A    between atoms: C_11  and  C_13
REMARK   10  A    between atoms: C_13  and  C_15
REMARK   11  A    between atoms: C_15  and  C_17
REMARK   12  A    between atoms: C_17  and  C_19
REMARK   13  A    between atoms: C_19  and  C_21
REMARK   14  A    between atoms: C_21  and  C_23
REMARK   15  A    between atoms: C_28  and  C_29
REMARK   16  A    between atoms: C_34  and  C_35
REMARK                            x       y       z     vdW  Elec       q    Type
REMARK                         _______ _______ _______ _____ _____    ______ ____
ROOT
ATOM      1  O   UNL     1     -14.571   1.987  14.003  0.00  0.00    +0.000 OA
ATOM      2  O   UNL     1     -12.616  -1.427  12.684  0.00  0.00    +0.000 OA
ATOM      3  O   UNL     1     -12.348  -0.536  15.373  0.00  0.00    +0.000 OA
ATOM      4  C   UNL     1     -13.665   1.419  14.917  0.00  0.00    +0.000 C 
ATOM      5  C   UNL     1     -13.353  -0.039  14.528  0.00  0.00    +0.000 C 
ATOM      6  C   UNL     1     -12.866  -0.098  13.058  0.00  0.00    +0.000 C 
ATOM      7  C   UNL     1     -13.938   0.542  12.178  0.00  0.00    +0.000 C 
ATOM      8  C   UNL     1     -13.953   2.006  12.641  0.00  0.00    +0.000 C 
ENDROOT
BRANCH   8  10
ATOM      9  O   UNL     1     -15.446   3.800  12.830  0.00  0.00    +0.000 OA
ATOM     10  C   UNL     1     -14.788   2.953  11.828  0.00  0.00    +0.000 C 
ENDBRANCH   8  10
BRANCH   7  11
ATOM     11  O   UNL     1     -13.788   0.360  10.790  0.00  0.00    +0.000 OA
BRANCH  11  16
ATOM     12  O   UNL     1     -15.679   0.202   9.408  0.00  0.00    +0.000 OA
ATOM     13  O   UNL     1     -13.577   2.006   6.981  0.00  0.00    +0.000 OA
ATOM     14  O   UNL     1     -12.382  -0.598   7.086  0.00  0.00    +0.000 OA
ATOM     15  O   UNL     1     -12.791  -2.074   9.436  0.00  0.00    +0.000 OA
ATOM     16  C   UNL     1     -14.621  -0.551  10.024  0.00  0.00    +0.000 C 
ATOM     17  C   UNL     1     -13.808  -1.226   8.910  0.00  0.00    +0.000 C 
ATOM     18  C   UNL     1     -13.129  -0.070   8.147  0.00  0.00    +0.000 C 
ATOM     19  C   UNL     1     -14.234   0.882   7.585  0.00  0.00    +0.000 C 
ATOM     20  C   UNL     1     -15.160   1.372   8.706  0.00  0.00    +0.000 C 
BRANCH  20  22
ATOM     21  O   UNL     1     -16.283   3.427   8.631  0.00  0.00    +0.000 OA
ATOM     22  C   UNL     1     -16.345   2.112   8.169  0.00  0.00    +0.000 C 
ENDBRANCH  20  22
ENDBRANCH  11  16
ENDBRANCH   7  11
BRANCH   4  23
ATOM     23  O   UNL     1     -14.248   1.441  16.183  0.00  0.00    +0.000 OA
BRANCH  23  24
ATOM     24  C   UNL     1     -13.520   2.272  17.091  0.00  0.00    +0.000 C 
BRANCH  24  25
ATOM     25  C   UNL     1     -12.385   3.002  16.344  0.00  0.00    +0.000 C 
BRANCH  25  26
ATOM     26  C   UNL     1     -11.056   2.687  17.030  0.00  0.00    +0.000 C 
BRANCH  26  27
ATOM     27  C   UNL     1     -10.063   2.080  16.012  0.00  0.00    +0.000 C 
BRANCH  27  28
ATOM     28  C   UNL     1     -10.253   2.675  14.630  0.00  0.00    +0.000 C 
BRANCH  28  29
ATOM     29  C   UNL     1      -9.073   3.568  14.286  0.00  0.00    +0.000 C 
BRANCH  29  30
ATOM     30  C   UNL     1      -9.537   4.936  13.874  0.00  0.00    +0.000 C 
BRANCH  30  31
ATOM     31  C   UNL     1      -9.825   5.757  15.076  0.00  0.00    +0.000 C 
BRANCH  31  32
ATOM     32  C   UNL     1      -8.685   5.735  16.062  0.00  0.00    +0.000 C 
BRANCH  32  33
ATOM     33  C   UNL     1      -7.769   6.919  15.806  0.00  0.00    +0.000 C 
BRANCH  33  35
ATOM     34  C   UNL     1      -7.627   9.326  15.253  0.00  0.00    +0.000 C 
ATOM     35  C   UNL     1      -8.548   8.145  15.442  0.00  0.00    +0.000 C 
ENDBRANCH  33  35
ENDBRANCH  32  33
ENDBRANCH  31  32
ENDBRANCH  30  31
ENDBRANCH  29  30
ENDBRANCH  28  29
ENDBRANCH  27  28
ENDBRANCH  26  27
ENDBRANCH  25  26
ENDBRANCH  24  25
ENDBRANCH  23  24
ENDBRANCH   4  23
TORSDOF 16
BEGIN_RES LEU A  10
REMARK  2 active torsions:
REMARK  status: ('A' for Active; 'I' for Inactive)
REMARK    1  A    between atoms: CA   and  CB  
REMARK    2  A    between atoms: CB   and  CG  
ROOT
ATOM      1  CA  LEU A  10     -10.775  -4.871   5.898  1.00 25.14     0.177 C 
ENDROOT
BRANCH   1   2
ATOM      2  CB  LEU A  10     -12.191  -4.387   6.226  1.00 17.87     0.038 C 
BRANCH   2   3
ATOM      3  CG  LEU A  10     -12.933  -3.755   5.046  1.00 24.95    -0.020 C 
ATOM      4  CD2 LEU A  10     -13.200  -4.804   4.021  1.00 26.38     0.009 C 
ATOM      5  CD1 LEU A  10     -12.128  -2.614   4.447  1.00 28.12     0.009 C 
ENDBRANCH   2   3
ENDBRANCH   1   2
END_RES LEU A  10
BEGIN_RES CYS A  12
REMARK  2 active torsions:
REMARK  status: ('A' for Active; 'I' for Inactive)
REMARK    3  A    between atoms: CA   and  CB  
REMARK    4  A    between atoms: CB   and  SG  
ROOT
ATOM      6  CA  CYS A  12      -8.555   0.470   8.750  1.00 23.16     0.185 C 
ENDROOT
BRANCH   6   7
ATOM      7  CB  CYS A  12      -9.828   0.763   9.555  1.00 20.43     0.105 C 
BRANCH   7   8
ATOM      8  SG  CYS A  12     -10.624   2.368   9.238  1.00 24.64    -0.180 SA
ATOM      9  H04 CYS A  12     -11.156   2.368   8.009  1.00 24.64     0.101 HD
ENDBRANCH   7   8
ENDBRANCH   6   7
END_RES CYS A  12
BEGIN_RES GLN A  14
REMARK  3 active torsions:
REMARK  status: ('A' for Active; 'I' for Inactive)
REMARK    5  A    between atoms: CA   and  CB  
REMARK    6  A    between atoms: CB   and  CG  
REMARK    7  A    between atoms: CG   and  CD  
REMARK       I    between atoms: CD   and  NE2 
ROOT
ATOM     10  CA  GLN A  14      -4.645   5.402  11.377  1.00 10.43     0.177 C 
ENDROOT
BRANCH  10  11
ATOM     11  CB  GLN A  14      -5.541   5.549  12.608  1.00 14.45     0.044 C 
BRANCH  11  12
ATOM     12  CG  GLN A  14      -6.613   6.605  12.468  1.00 13.74     0.105 C 
BRANCH  12  13
ATOM     13  CD  GLN A  14      -6.039   7.990  12.289  1.00 16.29     0.215 C 
ATOM     14  NE2 GLN A  14      -6.631   8.760  11.403  1.00  8.57    -0.370 N 
ATOM     15  H06 GLN A  14      -6.291   9.698  11.241  1.00  8.57     0.159 HD
ATOM     16  H07 GLN A  14      -7.425   8.415  10.884  1.00  8.57     0.159 HD
ATOM     17  OE1 GLN A  14      -5.077   8.363  12.943  1.00 23.55    -0.274 OA
ENDBRANCH  12  13
ENDBRANCH  11  12
ENDBRANCH  10  11
END_RES GLN A  14
BEGIN_RES SER A  16
REMARK  2 active torsions:
REMARK  status: ('A' for Active; 'I' for Inactive)
REMARK    8  A    between atoms: CA   and  CB  
REMARK    9  A    between atoms: CB   and  OG  
ROOT
ATOM     18  CA  SER A  16      -1.305  10.019  14.282  1.00  2.34     0.200 C 
ENDROOT
BRANCH  18  19
ATOM     19  CB  SER A  16      -2.242   9.935  15.479  1.00  3.12     0.199 C 
BRANCH  19  20
ATOM     20  OG  SER A  16      -3.464   9.322  15.106  1.00  1.00    -0.398 OA
ATOM     21  H04 SER A  16      -4.042   9.977  14.709  1.00  1.00     0.209 HD
ENDBRANCH  19  20
ENDBRANCH  18  19
END_RES SER A  16
BEGIN_RES LEU A  32
REMARK  2 active torsions:
REMARK  status: ('A' for Active; 'I' for Inactive)
REMARK   10  A    between atoms: CA   and  CB  
REMARK   11  A    between atoms: CB   and  CG  
ROOT
ATOM     22  CA  LEU A  32     -10.272  -4.106   1.587  1.00 16.16     0.177 C 
ENDROOT
BRANCH  22  23
ATOM     23  CB  LEU A  32     -11.613  -3.858   0.880  1.00 12.35     0.038 C 
BRANCH  23  24
ATOM     24  CG  LEU A  32     -12.550  -5.079   0.981  1.00  9.77    -0.020 C 
ATOM     25  CD1 LEU A  32     -13.982  -4.664   0.738  1.00  4.35     0.009 C 
ATOM     26  CD2 LEU A  32     -12.154  -6.143  -0.008  1.00 10.60     0.009 C 
ENDBRANCH  23  24
ENDBRANCH  22  23
END_RES LEU A  32
BEGIN_RES HIS A  38
REMARK  2 active torsions:
REMARK  status: ('A' for Active; 'I' for Inactive)
REMARK   12  A    between atoms: CA   and  CB  
REMARK   13  A    between atoms: CB   and  CG  
ROOT
ATOM     27  CA  HIS A  38     -10.959   4.941   1.621  1.00 16.94     0.182 C 
ENDROOT
BRANCH  27  28
ATOM     28  CB  HIS A  38     -11.810   4.840   2.881  1.00 15.47     0.095 C 
BRANCH  28  29
ATOM     29  CG  HIS A  38     -12.990   3.934   2.741  1.00 18.62     0.053 A 
ATOM     30  CD2 HIS A  38     -14.148   4.082   2.053  1.00 15.06     0.116 A 
ATOM     31  NE2 HIS A  38     -14.876   2.935   2.240  1.00 18.12    -0.359 N 
ATOM     32  CE1 HIS A  38     -14.194   2.113   3.014  1.00 14.78     0.207 A 
ATOM     33  H06 HIS A  38     -15.788   2.750   1.849  1.00 18.12     0.166 HD
ATOM     34  ND1 HIS A  38     -13.052   2.691   3.332  1.00 16.58    -0.247 NA
ENDBRANCH  28  29
ENDBRANCH  27  28
END_RES HIS A  38
BEGIN_RES TRP A  63
REMARK  2 active torsions:
REMARK  status: ('A' for Active; 'I' for Inactive)
REMARK   14  A    between atoms: CA   and  CB  
REMARK   15  A    between atoms: CB   and  CG  
ROOT
ATOM     35  CA  TRP A  63     -22.437   6.257   6.543  1.00 27.04     0.181 C 
ENDROOT
BRANCH  35  36
ATOM     36  CB  TRP A  63     -22.360   6.642   5.068  1.00 31.37     0.075 C 
BRANCH  36  37
ATOM     37  CG  TRP A  63     -20.956   6.694   4.504  1.00 34.37    -0.028 A 
ATOM     38  CD2 TRP A  63     -19.915   5.723   4.677  1.00 33.79    -0.002 A 
ATOM     39  CE3 TRP A  63     -19.806   4.532   5.399  1.00 32.99     0.014 A 
ATOM     40  CE2 TRP A  63     -18.809   6.156   3.914  1.00 35.84     0.042 A 
ATOM     41  CZ3 TRP A  63     -18.616   3.821   5.339  1.00 32.93     0.001 A 
ATOM     42  CH2 TRP A  63     -17.534   4.279   4.571  1.00 39.24     0.002 A 
ATOM     43  CZ2 TRP A  63     -17.611   5.441   3.851  1.00 37.99     0.030 A 
ATOM     44  NE1 TRP A  63     -19.165   7.331   3.311  1.00 37.98    -0.365 N 
ATOM     45  H06 TRP A  63     -18.577   7.879   2.699  1.00 37.98     0.165 HD
ATOM     46  CD1 TRP A  63     -20.453   7.645   3.673  1.00 38.16     0.096 A 
ENDBRANCH  36  37
ENDBRANCH  35  36
END_RES TRP A  63
BEGIN_RES LEU A  66
REMARK  2 active torsions:
REMARK  status: ('A' for Active; 'I' for Inactive)
REMARK   16  A    between atoms: CA   and  CB  
REMARK   17  A    between atoms: CB   and  CG  
ROOT
ATOM     47  CA  LEU A  66     -20.004   6.489  11.120  1.00 10.90     0.177 C 
ENDROOT
BRANCH  47  48
ATOM     48  CB  LEU A  66     -19.626   5.453  10.069  1.00 13.57     0.038 C 
BRANCH  48  49
ATOM     49  CG  LEU A  66     -19.808   3.982  10.440  1.00  8.73    -0.020 C 
ATOM     50  CD1 LEU A  66     -19.808   3.119   9.205  1.00 14.23     0.009 C 
ATOM     51  CD2 LEU A  66     -18.681   3.576  11.354  1.00  1.92     0.009 C 
ENDBRANCH  48  49
ENDBRANCH  47  48
END_RES LEU A  66
BEGIN_RES PHE A  70
REMARK  2 active torsions:
REMARK  status: ('A' for Active; 'I' for Inactive)
REMARK   18  A    between atoms: CA   and  CB  
REMARK   19  A    between atoms: CB   and  CG  
ROOT
ATOM     52  CA  PHE A  70     -14.974   9.434  13.165  1.00  8.78     0.180 C 
ENDROOT
BRANCH  52  53
ATOM     53  CB  PHE A  70     -14.707   9.132  11.681  1.00  6.33     0.073 C 
BRANCH  53  54
ATOM     54  CG  PHE A  70     -13.945   7.854  11.458  1.00  3.42    -0.056 A 
ATOM     55  CD1 PHE A  70     -13.435   7.130  12.525  1.00 13.88     0.007 A 
ATOM     56  CE1 PHE A  70     -12.683   5.962  12.308  1.00 12.71     0.001 A 
ATOM     57  CZ  PHE A  70     -12.440   5.515  11.008  1.00  4.21     0.000 A 
ATOM     58  CE2 PHE A  70     -12.945   6.228   9.937  1.00  2.83     0.001 A 
ATOM     59  CD2 PHE A  70     -13.696   7.394  10.165  1.00  1.00     0.007 A 
ENDBRANCH  53  54
ENDBRANCH  52  53
END_RES PHE A  70
BEGIN_RES TYR A  73
REMARK  3 active torsions:
REMARK  status: ('A' for Active; 'I' for Inactive)
REMARK   20  A    between atoms: CA   and  CB  
REMARK   21  A    between atoms: CB   and  CG  
REMARK   22  A    between atoms: CZ   and  OH  
ROOT
ATOM     60  CA  TYR A  73     -13.212  10.166  17.260  1.00 12.17     0.180 C 
ENDROOT
BRANCH  60  61
ATOM     61  CB  TYR A  73     -13.301   8.846  16.517  1.00 12.84     0.073 C 
BRANCH  61  62
ATOM     62  CG  TYR A  73     -13.163   7.663  17.410  1.00 15.89    -0.056 A 
ATOM     63  CD1 TYR A  73     -11.923   7.167  17.748  1.00 16.00     0.010 A 
ATOM     64  CE1 TYR A  73     -11.792   6.041  18.559  1.00 13.55     0.037 A 
ATOM     65  CZ  TYR A  73     -12.927   5.412  19.032  1.00 18.13     0.065 A 
ATOM     66  CE2 TYR A  73     -14.177   5.887  18.711  1.00 15.89     0.037 A 
ATOM     67  CD2 TYR A  73     -14.289   7.011  17.902  1.00 21.86     0.010 A 
BRANCH  65  68
ATOM     68  OH  TYR A  73     -12.821   4.305  19.837  1.00 12.12    -0.361 OA
ATOM     69  H08 TYR A  73     -13.197   3.544  19.387  1.00 12.12     0.217 HD
ENDBRANCH  65  68
ENDBRANCH  61  62
ENDBRANCH  60  61
END_RES TYR A  73
BEGIN_RES PHE A  77
REMARK  2 active torsions:
REMARK  status: ('A' for Active; 'I' for Inactive)
REMARK   23  A    between atoms: CA   and  CB  
REMARK   24  A    between atoms: CB   and  CG  
ROOT
ATOM     70  CA  PHE A  77      -8.400  10.581  20.110  1.00 17.17     0.180 C 
ENDROOT
BRANCH  70  71
ATOM     71  CB  PHE A  77      -8.228   9.750  18.851  1.00 10.44     0.073 C 
BRANCH  71  72
ATOM     72  CG  PHE A  77      -7.714   8.368  19.106  1.00  6.07    -0.056 A 
ATOM     73  CD2 PHE A  77      -6.375   8.082  18.963  1.00  9.61     0.007 A 
ATOM     74  CE2 PHE A  77      -5.889   6.802  19.200  1.00  1.00     0.001 A 
ATOM     75  CZ  PHE A  77      -6.755   5.794  19.588  1.00  1.92     0.000 A 
ATOM     76  CE1 PHE A  77      -8.096   6.064  19.738  1.00  9.25     0.001 A 
ATOM     77  CD1 PHE A  77      -8.572   7.352  19.496  1.00  9.63     0.007 A 
ENDBRANCH  71  72
ENDBRANCH  70  71
END_RES PHE A  77
BEGIN_RES LEU A  96
REMARK  2 active torsions:
REMARK  status: ('A' for Active; 'I' for Inactive)
REMARK   25  A    between atoms: CA   and  CB  
REMARK   26  A    between atoms: CB   and  CG  
ROOT
ATOM     78  CA  LEU A  96       0.717   6.481  17.359  1.00 16.08     0.177 C 
ENDROOT
BRANCH  78  79
ATOM     79  CB  LEU A  96      -0.370   7.101  18.230  1.00 18.83     0.038 C 
BRANCH  79  80
ATOM     80  CG  LEU A  96      -0.166   6.908  19.733  1.00 19.03    -0.020 C 
ATOM     81  CD1 LEU A  96       0.437   5.544  19.972  1.00 28.17     0.009 C 
ATOM     82  CD2 LEU A  96       0.782   7.953  20.275  1.00 22.01     0.009 C 
ENDBRANCH  79  80
ENDBRANCH  78  79
END_RES LEU A  96
BEGIN_RES VAL A  98
REMARK  1 active torsions:
REMARK  status: ('A' for Active; 'I' for Inactive)
REMARK   27  A    between atoms: CA   and  CB  
ROOT
ATOM     83  CA  VAL A  98      -3.928   2.082  14.897  1.00 19.83     0.180 C 
ENDROOT
BRANCH  83  84
ATOM     84  CB  VAL A  98      -5.203   2.807  15.281  1.00 17.87     0.009 C 
ATOM     85  CG2 VAL A  98      -4.919   4.270  15.503  1.00 29.90     0.012 C 
ATOM     86  CG1 VAL A  98      -5.787   2.178  16.528  1.00 14.79     0.012 C 
ENDBRANCH  83  84
END_RES VAL A  98
BEGIN_RES ASN A 112
REMARK  2 active torsions:
REMARK  status: ('A' for Active; 'I' for Inactive)
REMARK   28  A    between atoms: CA   and  CB  
REMARK   29  A    between atoms: CB   and  CG  
REMARK       I    between atoms: CG   and  ND2 
ROOT
ATOM     87  CA  ASN A 112     -11.790  -8.793  14.069  1.00 37.70     0.185 C 
ENDROOT
BRANCH  87  88
ATOM     88  CB  ASN A 112     -12.992  -7.945  14.465  1.00 26.24     0.137 C 
BRANCH  88  89
ATOM     89  CG  ASN A 112     -13.801  -8.552  15.589  1.00 21.77     0.217 C 
ATOM     90  ND2 ASN A 112     -14.958  -9.116  15.242  1.00  9.31    -0.370 N 
ATOM     91  H04 ASN A 112     -15.546  -9.538  15.947  1.00  9.31     0.159 HD
ATOM     92  H05 ASN A 112     -15.247  -9.122  14.274  1.00  9.31     0.159 HD
ATOM     93  OD1 ASN A 112     -13.398  -8.513  16.757  1.00 21.61    -0.274 OA
ENDBRANCH  88  89
ENDBRANCH  87  88
END_RES ASN A 112
BEGIN_RES PHE A 114
REMARK  2 active torsions:
REMARK  status: ('A' for Active; 'I' for Inactive)
REMARK   30  A    between atoms: CA   and  CB  
REMARK   31  A    between atoms: CB   and  CG  
ROOT
ATOM     94  CA  PHE A 114      -7.754  -3.619  17.012  1.00 26.06     0.180 C 
ENDROOT
BRANCH  94  95
ATOM     95  CB  PHE A 114      -8.890  -3.080  17.867  1.00 19.95     0.073 C 
BRANCH  95  96
ATOM     96  CG  PHE A 114      -8.699  -1.656  18.277  1.00 17.65    -0.056 A 
ATOM     97  CD1 PHE A 114      -7.975  -0.775  17.477  1.00 13.01     0.007 A 
ATOM     98  CE1 PHE A 114      -7.772   0.541  17.871  1.00  6.74     0.001 A 
ATOM     99  CZ  PHE A 114      -8.296   0.997  19.077  1.00  6.27     0.000 A 
ATOM    100  CE2 PHE A 114      -9.019   0.130  19.880  1.00 17.36     0.001 A 
ATOM    101  CD2 PHE A 114      -9.219  -1.195  19.478  1.00 18.39     0.007 A 
ENDBRANCH  95  96
ENDBRANCH  94  95
END_RES PHE A 114
BEGIN_RES VAL A 116
REMARK  1 active torsions:
REMARK  status: ('A' for Active; 'I' for Inactive)
REMARK   32  A    between atoms: CA   and  CB  
ROOT
ATOM    102  CA  VAL A 116      -2.467   0.283  18.565  1.00 13.48     0.180 C 
ENDROOT
BRANCH 102 103
ATOM    103  CB  VAL A 116      -3.101   1.238  19.599  1.00 20.86     0.009 C 
ATOM    104  CG1 VAL A 116      -3.051   2.673  19.068  1.00 25.01     0.012 C 
ATOM    105  CG2 VAL A 116      -4.514   0.815  19.927  1.00 25.34     0.012 C 
ENDBRANCH 102 103
END_RES VAL A 116
BEGIN_RES ILE A 123
REMARK  2 active torsions:
REMARK  status: ('A' for Active; 'I' for Inactive)
REMARK   33  A    between atoms: CA   and  CB  
REMARK   34  A    between atoms: CB   and  CG1 
ROOT
ATOM    106  CA  ILE A 123       1.557  -1.626  23.222  1.00 15.07     0.180 C 
ENDROOT
BRANCH 106 107
ATOM    107  CB  ILE A 123       1.697  -0.112  23.461  1.00 14.41     0.013 C 
ATOM    108  CG2 ILE A 123       3.102   0.208  23.941  1.00 18.35     0.012 C 
BRANCH 107 109
ATOM    109  CG1 ILE A 123       1.389   0.658  22.179  1.00 15.23     0.002 C 
ATOM    110  CD1 ILE A 123       0.238   1.626  22.316  1.00 14.67     0.005 C 
ENDBRANCH 107 109
ENDBRANCH 106 107
END_RES ILE A 123
BEGIN_RES LEU A 124
REMARK  2 active torsions:
REMARK  status: ('A' for Active; 'I' for Inactive)
REMARK   35  A    between atoms: CA   and  CB  
REMARK   36  A    between atoms: CB   and  CG  
ROOT
ATOM    111  CA  LEU A 124      -2.057  -2.686  23.524  1.00 11.86     0.177 C 
ENDROOT
BRANCH 111 112
ATOM    112  CB  LEU A 124      -2.698  -1.652  24.429  1.00 14.60     0.038 C 
BRANCH 112 113
ATOM    113  CG  LEU A 124      -2.620  -0.251  23.841  1.00 16.19    -0.020 C 
ATOM    114  CD1 LEU A 124      -4.038   0.209  23.452  1.00 22.07     0.009 C 
ATOM    115  CD2 LEU A 124      -1.982   0.679  24.842  1.00  9.12     0.009 C 
ENDBRANCH 112 113
ENDBRANCH 111 112
END_RES LEU A 124
BEGIN_RES PHE A 126
REMARK  2 active torsions:
REMARK  status: ('A' for Active; 'I' for Inactive)
REMARK   37  A    between atoms: CA   and  CB  
REMARK   38  A    between atoms: CB   and  CG  
ROOT
ATOM    116  CA  PHE A 126      -8.784  -4.792  22.233  1.00 23.15     0.180 C 
ENDROOT
BRANCH 116 117
ATOM    117  CB  PHE A 126      -9.823  -4.011  21.461  1.00 20.65     0.073 C 
BRANCH 117 118
ATOM    118  CG  PHE A 126     -10.953  -3.548  22.295  1.00 23.65    -0.056 A 
ATOM    119  CD2 PHE A 126     -12.207  -4.118  22.164  1.00 36.63     0.007 A 
ATOM    120  CE2 PHE A 126     -13.276  -3.679  22.957  1.00 36.27     0.001 A 
ATOM    121  CZ  PHE A 126     -13.081  -2.664  23.882  1.00 18.06     0.000 A 
ATOM    122  CE1 PHE A 126     -11.831  -2.095  24.016  1.00  5.50     0.001 A 
ATOM    123  CD1 PHE A 126     -10.771  -2.540  23.226  1.00 15.29     0.007 A 
ENDBRANCH 117 118
ENDBRANCH 116 117
END_RES PHE A 126
BEGIN_RES TRP A 131
REMARK  2 active torsions:
REMARK  status: ('A' for Active; 'I' for Inactive)
REMARK   39  A    between atoms: CA   and  CB  
REMARK   40  A    between atoms: CB   and  CG  
ROOT
ATOM    124  CA  TRP A 131      -8.096  -3.335  26.542  1.00 14.52     0.181 C 
ENDROOT
BRANCH 124 125
ATOM    125  CB  TRP A 131      -7.651  -1.877  26.607  1.00 13.06     0.075 C 
BRANCH 125 126
ATOM    126  CG  TRP A 131      -8.033  -1.056  25.395  1.00 16.97    -0.028 A 
ATOM    127  CD2 TRP A 131      -9.115  -0.125  25.303  1.00 11.34    -0.002 A 
ATOM    128  CE2 TRP A 131      -9.099   0.413  24.002  1.00  5.87     0.042 A 
ATOM    129  CE3 TRP A 131     -10.098   0.304  26.201  1.00  3.80     0.014 A 
ATOM    130  CZ2 TRP A 131     -10.029   1.364  23.576  1.00  1.35     0.030 A 
ATOM    131  NE1 TRP A 131      -8.057  -0.164  23.330  1.00 13.90    -0.365 N 
ATOM    132  CH2 TRP A 131     -10.982   1.768  24.477  1.00  1.00     0.002 A 
ATOM    133  CZ3 TRP A 131     -11.023   1.244  25.783  1.00  1.00     0.001 A 
ATOM    134  CD1 TRP A 131      -7.420  -1.045  24.172  1.00 17.22     0.096 A 
ATOM    135  H07 TRP A 131      -7.797   0.026  22.373  1.00 13.90     0.165 HD
ENDBRANCH 125 126
ENDBRANCH 124 125
END_RES TRP A 131
BEGIN_RES LEU A 148
REMARK  2 active torsions:
REMARK  status: ('A' for Active; 'I' for Inactive)
REMARK   41  A    between atoms: CA   and  CB  
REMARK   42  A    between atoms: CB   and  CG  
ROOT
ATOM    136  CA  LEU A 148      -9.018   3.259  29.295  1.00 16.99     0.177 C 
ENDROOT
BRANCH 136 137
ATOM    137  CB  LEU A 148      -8.166   2.574  28.236  1.00  6.39     0.038 C 
BRANCH 137 138
ATOM    138  CG  LEU A 148      -7.542   3.363  27.103  1.00  1.00    -0.020 C 
ATOM    139  CD2 LEU A 148      -8.609   4.021  26.277  1.00  1.00     0.009 C 
ATOM    140  CD1 LEU A 148      -6.722   2.409  26.254  1.00  2.71     0.009 C 
ENDBRANCH 137 138
ENDBRANCH 136 137
END_RES LEU A 148
BEGIN_RES THR A 154
REMARK  2 active torsions:
REMARK  status: ('A' for Active; 'I' for Inactive)
REMARK   43  A    between atoms: CA   and  CB  
REMARK   44  A    between atoms: CB   and  OG1 
ROOT
ATOM    141  CA  THR A 154     -15.990   3.959  24.426  1.00 20.45     0.205 C 
ENDROOT
BRANCH 141 142
ATOM    142  CB  THR A 154     -14.777   4.829  24.694  1.00 16.79     0.146 C 
ATOM    143  CG2 THR A 154     -13.653   4.468  23.742  1.00 20.24     0.042 C 
BRANCH 142 144
ATOM    144  OG1 THR A 154     -15.135   6.201  24.488  1.00 18.84    -0.393 OA
ATOM    145  H06 THR A 154     -16.091   6.282  24.457  1.00 18.84     0.210 HD
ENDBRANCH 142 144
ENDBRANCH 141 142
END_RES THR A 154
BEGIN_RES VAL A 158
REMARK  1 active torsions:
REMARK  status: ('A' for Active; 'I' for Inactive)
REMARK   45  A    between atoms: CA   and  CB  
ROOT
ATOM    146  CA  VAL A 158     -15.487  -0.189  19.892  1.00 15.49     0.180 C 
ENDROOT
BRANCH 146 147
ATOM    147  CB  VAL A 158     -14.291  -0.273  20.822  1.00  6.52     0.009 C 
ATOM    148  CG1 VAL A 158     -13.261  -1.242  20.289  1.00  1.00     0.012 C 
ATOM    149  CG2 VAL A 158     -13.703   1.096  20.972  1.00  5.99     0.012 C 
ENDBRANCH 146 147
END_RES VAL A 158
BEGIN_RES LEU A 161
REMARK  2 active torsions:
REMARK  status: ('A' for Active; 'I' for Inactive)
REMARK   46  A    between atoms: CA   and  CB  
REMARK   47  A    between atoms: CB   and  CG  
ROOT
ATOM    150  CA  LEU A 161     -18.031  -1.858  15.935  1.00 13.31     0.177 C 
ENDROOT
BRANCH 150 151
ATOM    151  CB  LEU A 161     -17.046  -0.706  16.001  1.00 14.13     0.038 C 
BRANCH 151 152
ATOM    152  CG  LEU A 161     -17.434   0.558  15.243  1.00 19.39    -0.020 C 
ATOM    153  CD2 LEU A 161     -18.820   1.001  15.642  1.00 27.75     0.009 C 
ATOM    154  CD1 LEU A 161     -17.388   0.273  13.766  1.00 18.59     0.009 C 
ENDBRANCH 151 152
ENDBRANCH 150 151
END_RES LEU A 161
BEGIN_RES GLN A 168
REMARK  3 active torsions:
REMARK  status: ('A' for Active; 'I' for Inactive)
REMARK   48  A    between atoms: CA   and  CB  
REMARK   49  A    between atoms: CB   and  CG  
REMARK   50  A    between atoms: CG   and  CD  
REMARK       I    between atoms: CD   and  NE2 
ROOT
ATOM    155  CA  GLN A 168     -22.035  -6.020   8.155  1.00 30.94     0.177 C 
ENDROOT
BRANCH 155 156
ATOM    156  CB  GLN A 168     -23.054  -5.218   8.946  1.00 41.76     0.044 C 
BRANCH 156 157
ATOM    157  CG  GLN A 168     -24.325  -5.960   9.260  1.00 61.20     0.105 C 
BRANCH 157 158
ATOM    158  CD  GLN A 168     -24.534  -6.116  10.753  1.00 75.49     0.215 C 
ATOM    159  NE2 GLN A 168     -24.095  -5.115  11.519  1.00 85.00    -0.370 N 
ATOM    160  H06 GLN A 168     -24.203  -5.161  12.522  1.00 85.00     0.159 HD
ATOM    161  H07 GLN A 168     -23.653  -4.312  11.094  1.00 85.00     0.159 HD
ATOM    162  OE1 GLN A 168     -25.079  -7.126  11.220  1.00 73.64    -0.274 OA
ENDBRANCH 157 158
ENDBRANCH 156 157
ENDBRANCH 155 156
END_RES GLN A 168
ENDMDL
MODEL 6
REMARK VINA RESULT:      -9.4      1.547      4.708
REMARK  Name = human_CD1d_DDM_pred.rank_0
REMARK  16 active torsions:
REMARK  status: ('A' for Active; 'I' for Inactive)
REMARK    1  A    between atoms: O_2  and  C_23
REMARK    2  A    between atoms: O_2  and  C_24
REMARK    3  A    between atoms: C_3  and  C_5
REMARK    4  A    between atoms: C_5  and  C_7
REMARK    5  A    between atoms: C_7  and  C_9
REMARK    6  A    between atoms: O_8  and  C_27
REMARK    7  A    between atoms: O_8  and  C_30
REMARK    8  A    between atoms: C_9  and  C_11
REMARK    9  A    between atoms: C_11  and  C_13
REMARK   10  A    between atoms: C_13  and  C_15
REMARK   11  A    between atoms: C_15  and  C_17
REMARK   12  A    between atoms: C_17  and  C_19
REMARK   13  A    between atoms: C_19  and  C_21
REMARK   14  A    between atoms: C_21  and  C_23
REMARK   15  A    between atoms: C_28  and  C_29
REMARK   16  A    between atoms: C_34  and  C_35
REMARK                            x       y       z     vdW  Elec       q    Type
REMARK                         _______ _______ _______ _____ _____    ______ ____
ROOT
ATOM      1  O   UNL     1     -13.880   2.674  15.570  0.00  0.00    +0.000 OA
ATOM      2  O   UNL     1     -13.621  -1.013  13.685  0.00  0.00    +0.000 OA
ATOM      3  O   UNL     1     -12.285  -0.535  16.151  0.00  0.00    +0.000 OA
ATOM      4  C   UNL     1     -12.974   1.764  16.146  0.00  0.00    +0.000 C 
ATOM      5  C   UNL     1     -13.281   0.331  15.672  0.00  0.00    +0.000 C 
ATOM      6  C   UNL     1     -13.305   0.282  14.123  0.00  0.00    +0.000 C 
ATOM      7  C   UNL     1     -14.325   1.307  13.634  0.00  0.00    +0.000 C 
ATOM      8  C   UNL     1     -13.728   2.649  14.082  0.00  0.00    +0.000 C 
ENDROOT
BRANCH   8  10
ATOM      9  O   UNL     1     -15.715   3.874  14.265  0.00  0.00    +0.000 OA
ATOM     10  C   UNL     1     -14.417   3.886  13.581  0.00  0.00    +0.000 C 
ENDBRANCH   8  10
BRANCH   7  11
ATOM     11  O   UNL     1     -14.666   1.237  12.269  0.00  0.00    +0.000 OA
BRANCH  11  16
ATOM     12  O   UNL     1     -16.063   2.440  10.816  0.00  0.00    +0.000 OA
ATOM     13  O   UNL     1     -14.215   0.650   8.180  0.00  0.00    +0.000 OA
ATOM     14  O   UNL     1     -15.812  -1.405   9.383  0.00  0.00    +0.000 OA
ATOM     15  O   UNL     1     -16.608  -0.984  12.041  0.00  0.00    +0.000 OA
ATOM     16  C   UNL     1     -16.031   1.387  11.793  0.00  0.00    +0.000 C 
ATOM     17  C   UNL     1     -16.517   0.097  11.116  0.00  0.00    +0.000 C 
ATOM     18  C   UNL     1     -15.433  -0.246  10.074  0.00  0.00    +0.000 C 
ATOM     19  C   UNL     1     -15.305   0.944   9.068  0.00  0.00    +0.000 C 
ATOM     20  C   UNL     1     -15.026   2.259   9.805  0.00  0.00    +0.000 C 
BRANCH  20  22
ATOM     21  O   UNL     1     -15.943   4.391   9.478  0.00  0.00    +0.000 OA
ATOM     22  C   UNL     1     -15.107   3.441   8.889  0.00  0.00    +0.000 C 
ENDBRANCH  20  22
ENDBRANCH  11  16
ENDBRANCH   7  11
BRANCH   4  23
ATOM     23  O   UNL     1     -13.110   1.829  17.531  0.00  0.00    +0.000 OA
BRANCH  23  24
ATOM     24  C   UNL     1     -11.850   2.013  18.182  0.00  0.00    +0.000 C 
BRANCH  24  25
ATOM     25  C   UNL     1     -11.225   3.355  17.751  0.00  0.00    +0.000 C 
BRANCH  25  26
ATOM     26  C   UNL     1     -10.582   4.018  18.968  0.00  0.00    +0.000 C 
BRANCH  26  27
ATOM     27  C   UNL     1      -9.683   5.194  18.520  0.00  0.00    +0.000 C 
BRANCH  27  28
ATOM     28  C   UNL     1      -8.471   4.703  17.753  0.00  0.00    +0.000 C 
BRANCH  28  29
ATOM     29  C   UNL     1      -8.226   5.596  16.549  0.00  0.00    +0.000 C 
BRANCH  29  30
ATOM     30  C   UNL     1      -9.371   6.548  16.346  0.00  0.00    +0.000 C 
BRANCH  30  31
ATOM     31  C   UNL     1     -10.000   6.308  15.023  0.00  0.00    +0.000 C 
BRANCH  31  32
ATOM     32  C   UNL     1      -9.365   5.151  14.296  0.00  0.00    +0.000 C 
BRANCH  32  33
ATOM     33  C   UNL     1     -10.334   3.983  14.253  0.00  0.00    +0.000 C 
BRANCH  33  35
ATOM     34  C   UNL     1      -8.404   2.569  13.624  0.00  0.00    +0.000 C 
ATOM     35  C   UNL     1      -9.634   2.681  14.492  0.00  0.00    +0.000 C 
ENDBRANCH  33  35
ENDBRANCH  32  33
ENDBRANCH  31  32
ENDBRANCH  30  31
ENDBRANCH  29  30
ENDBRANCH  28  29
ENDBRANCH  27  28
ENDBRANCH  26  27
ENDBRANCH  25  26
ENDBRANCH  24  25
ENDBRANCH  23  24
ENDBRANCH   4  23
TORSDOF 16
BEGIN_RES LEU A  10
REMARK  2 active torsions:
REMARK  status: ('A' for Active; 'I' for Inactive)
REMARK    1  A    between atoms: CA   and  CB  
REMARK    2  A    between atoms: CB   and  CG  
ROOT
ATOM      1  CA  LEU A  10     -10.775  -4.871   5.898  1.00 25.14     0.177 C 
ENDROOT
BRANCH   1   2
ATOM      2  CB  LEU A  10     -12.191  -4.387   6.226  1.00 17.87     0.038 C 
BRANCH   2   3
ATOM      3  CG  LEU A  10     -12.401  -2.881   6.054  1.00 24.95    -0.020 C 
ATOM      4  CD2 LEU A  10     -13.690  -2.493   6.696  1.00 26.38     0.009 C 
ATOM      5  CD1 LEU A  10     -12.397  -2.496   4.585  1.00 28.12     0.009 C 
ENDBRANCH   2   3
ENDBRANCH   1   2
END_RES LEU A  10
BEGIN_RES CYS A  12
REMARK  2 active torsions:
REMARK  status: ('A' for Active; 'I' for Inactive)
REMARK    3  A    between atoms: CA   and  CB  
REMARK    4  A    between atoms: CB   and  SG  
ROOT
ATOM      6  CA  CYS A  12      -8.555   0.470   8.750  1.00 23.16     0.185 C 
ENDROOT
BRANCH   6   7
ATOM      7  CB  CYS A  12      -9.828   0.763   9.555  1.00 20.43     0.105 C 
BRANCH   7   8
ATOM      8  SG  CYS A  12     -10.923   2.049   8.880  1.00 24.64    -0.180 SA
ATOM      9  H04 CYS A  12     -11.979   1.473   8.290  1.00 24.64     0.101 HD
ENDBRANCH   7   8
ENDBRANCH   6   7
END_RES CYS A  12
BEGIN_RES GLN A  14
REMARK  3 active torsions:
REMARK  status: ('A' for Active; 'I' for Inactive)
REMARK    5  A    between atoms: CA   and  CB  
REMARK    6  A    between atoms: CB   and  CG  
REMARK    7  A    between atoms: CG   and  CD  
REMARK       I    between atoms: CD   and  NE2 
ROOT
ATOM     10  CA  GLN A  14      -4.645   5.402  11.377  1.00 10.43     0.177 C 
ENDROOT
BRANCH  10  11
ATOM     11  CB  GLN A  14      -5.541   5.549  12.608  1.00 14.45     0.044 C 
BRANCH  11  12
ATOM     12  CG  GLN A  14      -6.461   6.747  12.562  1.00 13.74     0.105 C 
BRANCH  12  13
ATOM     13  CD  GLN A  14      -5.730   8.046  12.802  1.00 16.29     0.215 C 
ATOM     14  NE2 GLN A  14      -5.002   8.116  13.895  1.00  8.57    -0.370 N 
ATOM     15  H06 GLN A  14      -4.489   8.960  14.107  1.00  8.57     0.159 HD
ATOM     16  H07 GLN A  14      -4.956   7.326  14.522  1.00  8.57     0.159 HD
ATOM     17  OE1 GLN A  14      -5.816   8.973  12.011  1.00 23.55    -0.274 OA
ENDBRANCH  12  13
ENDBRANCH  11  12
ENDBRANCH  10  11
END_RES GLN A  14
BEGIN_RES SER A  16
REMARK  2 active torsions:
REMARK  status: ('A' for Active; 'I' for Inactive)
REMARK    8  A    between atoms: CA   and  CB  
REMARK    9  A    between atoms: CB   and  OG  
ROOT
ATOM     18  CA  SER A  16      -1.305  10.019  14.282  1.00  2.34     0.200 C 
ENDROOT
BRANCH  18  19
ATOM     19  CB  SER A  16      -2.242   9.935  15.479  1.00  3.12     0.199 C 
BRANCH  19  20
ATOM     20  OG  SER A  16      -2.506   8.581  15.804  1.00  1.00    -0.398 OA
ATOM     21  H04 SER A  16      -2.285   8.424  16.724  1.00  1.00     0.209 HD
ENDBRANCH  19  20
ENDBRANCH  18  19
END_RES SER A  16
BEGIN_RES LEU A  32
REMARK  2 active torsions:
REMARK  status: ('A' for Active; 'I' for Inactive)
REMARK   10  A    between atoms: CA   and  CB  
REMARK   11  A    between atoms: CB   and  CG  
ROOT
ATOM     22  CA  LEU A  32     -10.272  -4.106   1.587  1.00 16.16     0.177 C 
ENDROOT
BRANCH  22  23
ATOM     23  CB  LEU A  32     -11.613  -3.858   0.880  1.00 12.35     0.038 C 
BRANCH  23  24
ATOM     24  CG  LEU A  32     -12.558  -5.071   0.999  1.00  9.77    -0.020 C 
ATOM     25  CD1 LEU A  32     -13.034  -5.228   2.424  1.00  4.35     0.009 C 
ATOM     26  CD2 LEU A  32     -13.742  -4.921   0.081  1.00 10.60     0.009 C 
ENDBRANCH  23  24
ENDBRANCH  22  23
END_RES LEU A  32
BEGIN_RES HIS A  38
REMARK  2 active torsions:
REMARK  status: ('A' for Active; 'I' for Inactive)
REMARK   12  A    between atoms: CA   and  CB  
REMARK   13  A    between atoms: CB   and  CG  
ROOT
ATOM     27  CA  HIS A  38     -10.959   4.941   1.621  1.00 16.94     0.182 C 
ENDROOT
BRANCH  27  28
ATOM     28  CB  HIS A  38     -11.810   4.840   2.881  1.00 15.47     0.095 C 
BRANCH  28  29
ATOM     29  CG  HIS A  38     -13.004   3.954   2.733  1.00 18.62     0.053 A 
ATOM     30  CD2 HIS A  38     -14.165   4.132   2.059  1.00 15.06     0.116 A 
ATOM     31  NE2 HIS A  38     -14.908   2.992   2.229  1.00 18.12    -0.359 N 
ATOM     32  CE1 HIS A  38     -14.231   2.145   2.980  1.00 14.78     0.207 A 
ATOM     33  H06 HIS A  38     -15.827   2.828   1.842  1.00 18.12     0.166 HD
ATOM     34  ND1 HIS A  38     -13.079   2.700   3.299  1.00 16.58    -0.247 NA
ENDBRANCH  28  29
ENDBRANCH  27  28
END_RES HIS A  38
BEGIN_RES TRP A  63
REMARK  2 active torsions:
REMARK  status: ('A' for Active; 'I' for Inactive)
REMARK   14  A    between atoms: CA   and  CB  
REMARK   15  A    between atoms: CB   and  CG  
ROOT
ATOM     35  CA  TRP A  63     -22.437   6.257   6.543  1.00 27.04     0.181 C 
ENDROOT
BRANCH  35  36
ATOM     36  CB  TRP A  63     -22.360   6.642   5.068  1.00 31.37     0.075 C 
BRANCH  36  37
ATOM     37  CG  TRP A  63     -20.953   6.799   4.531  1.00 34.37    -0.028 A 
ATOM     38  CD2 TRP A  63     -19.884   5.846   4.607  1.00 33.79    -0.002 A 
ATOM     39  CE3 TRP A  63     -19.745   4.584   5.191  1.00 32.99     0.014 A 
ATOM     40  CE2 TRP A  63     -18.785   6.395   3.912  1.00 35.84     0.042 A 
ATOM     41  CZ3 TRP A  63     -18.534   3.920   5.066  1.00 32.93     0.001 A 
ATOM     42  CH2 TRP A  63     -17.459   4.494   4.368  1.00 39.24     0.002 A 
ATOM     43  CZ2 TRP A  63     -17.565   5.728   3.785  1.00 37.99     0.030 A 
ATOM     44  NE1 TRP A  63     -19.171   7.620   3.441  1.00 37.98    -0.365 N 
ATOM     45  H06 TRP A  63     -18.595   8.251   2.903  1.00 37.98     0.165 HD
ATOM     46  CD1 TRP A  63     -20.471   7.853   3.820  1.00 38.16     0.096 A 
ENDBRANCH  36  37
ENDBRANCH  35  36
END_RES TRP A  63
BEGIN_RES LEU A  66
REMARK  2 active torsions:
REMARK  status: ('A' for Active; 'I' for Inactive)
REMARK   16  A    between atoms: CA   and  CB  
REMARK   17  A    between atoms: CB   and  CG  
ROOT
ATOM     47  CA  LEU A  66     -20.004   6.489  11.120  1.00 10.90     0.177 C 
ENDROOT
BRANCH  47  48
ATOM     48  CB  LEU A  66     -19.626   5.453  10.069  1.00 13.57     0.038 C 
BRANCH  48  49
ATOM     49  CG  LEU A  66     -19.311   4.041  10.560  1.00  8.73    -0.020 C 
ATOM     50  CD1 LEU A  66     -19.004   4.048  12.035  1.00 14.23     0.009 C 
ATOM     51  CD2 LEU A  66     -20.505   3.162  10.285  1.00  1.92     0.009 C 
ENDBRANCH  48  49
ENDBRANCH  47  48
END_RES LEU A  66
BEGIN_RES PHE A  70
REMARK  2 active torsions:
REMARK  status: ('A' for Active; 'I' for Inactive)
REMARK   18  A    between atoms: CA   and  CB  
REMARK   19  A    between atoms: CB   and  CG  
ROOT
ATOM     52  CA  PHE A  70     -14.974   9.434  13.165  1.00  8.78     0.180 C 
ENDROOT
BRANCH  52  53
ATOM     53  CB  PHE A  70     -14.707   9.132  11.681  1.00  6.33     0.073 C 
BRANCH  53  54
ATOM     54  CG  PHE A  70     -13.910   7.875  11.460  1.00  3.42    -0.056 A 
ATOM     55  CD1 PHE A  70     -13.308   7.214  12.520  1.00 13.88     0.007 A 
ATOM     56  CE1 PHE A  70     -12.526   6.067  12.301  1.00 12.71     0.001 A 
ATOM     57  CZ  PHE A  70     -12.346   5.576  11.007  1.00  4.21     0.000 A 
ATOM     58  CE2 PHE A  70     -12.944   6.225   9.943  1.00  2.83     0.001 A 
ATOM     59  CD2 PHE A  70     -13.724   7.371  10.172  1.00  1.00     0.007 A 
ENDBRANCH  53  54
ENDBRANCH  52  53
END_RES PHE A  70
BEGIN_RES TYR A  73
REMARK  3 active torsions:
REMARK  status: ('A' for Active; 'I' for Inactive)
REMARK   20  A    between atoms: CA   and  CB  
REMARK   21  A    between atoms: CB   and  CG  
REMARK   22  A    between atoms: CZ   and  OH  
ROOT
ATOM     60  CA  TYR A  73     -13.212  10.166  17.260  1.00 12.17     0.180 C 
ENDROOT
BRANCH  60  61
ATOM     61  CB  TYR A  73     -13.301   8.846  16.517  1.00 12.84     0.073 C 
BRANCH  61  62
ATOM     62  CG  TYR A  73     -13.468   7.677  17.423  1.00 15.89    -0.056 A 
ATOM     63  CD1 TYR A  73     -14.031   6.503  16.973  1.00 16.00     0.010 A 
ATOM     64  CE1 TYR A  73     -14.216   5.417  17.827  1.00 13.55     0.037 A 
ATOM     65  CZ  TYR A  73     -13.830   5.521  19.149  1.00 18.13     0.065 A 
ATOM     66  CE2 TYR A  73     -13.264   6.682  19.623  1.00 15.89     0.037 A 
ATOM     67  CD2 TYR A  73     -13.086   7.754  18.758  1.00 21.86     0.010 A 
BRANCH  65  68
ATOM     68  OH  TYR A  73     -13.998   4.462  20.006  1.00 12.12    -0.361 OA
ATOM     69  H08 TYR A  73     -13.989   3.642  19.508  1.00 12.12     0.217 HD
ENDBRANCH  65  68
ENDBRANCH  61  62
ENDBRANCH  60  61
END_RES TYR A  73
BEGIN_RES PHE A  77
REMARK  2 active torsions:
REMARK  status: ('A' for Active; 'I' for Inactive)
REMARK   23  A    between atoms: CA   and  CB  
REMARK   24  A    between atoms: CB   and  CG  
ROOT
ATOM     70  CA  PHE A  77      -8.400  10.581  20.110  1.00 17.17     0.180 C 
ENDROOT
BRANCH  70  71
ATOM     71  CB  PHE A  77      -8.228   9.750  18.851  1.00 10.44     0.073 C 
BRANCH  71  72
ATOM     72  CG  PHE A  77      -7.289   8.596  19.014  1.00  6.07    -0.056 A 
ATOM     73  CD2 PHE A  77      -7.421   7.731  20.075  1.00  9.61     0.007 A 
ATOM     74  CE2 PHE A  77      -6.554   6.656  20.233  1.00  1.00     0.001 A 
ATOM     75  CZ  PHE A  77      -5.542   6.443  19.313  1.00  1.92     0.000 A 
ATOM     76  CE1 PHE A  77      -5.397   7.299  18.245  1.00  9.25     0.001 A 
ATOM     77  CD1 PHE A  77      -6.272   8.375  18.099  1.00  9.63     0.007 A 
ENDBRANCH  71  72
ENDBRANCH  70  71
END_RES PHE A  77
BEGIN_RES LEU A  96
REMARK  2 active torsions:
REMARK  status: ('A' for Active; 'I' for Inactive)
REMARK   25  A    between atoms: CA   and  CB  
REMARK   26  A    between atoms: CB   and  CG  
ROOT
ATOM     78  CA  LEU A  96       0.717   6.481  17.359  1.00 16.08     0.177 C 
ENDROOT
BRANCH  78  79
ATOM     79  CB  LEU A  96      -0.370   7.101  18.230  1.00 18.83     0.038 C 
BRANCH  79  80
ATOM     80  CG  LEU A  96      -0.165   6.910  19.733  1.00 19.03    -0.020 C 
ATOM     81  CD1 LEU A  96       0.566   8.112  20.282  1.00 28.17     0.009 C 
ATOM     82  CD2 LEU A  96      -1.498   6.797  20.436  1.00 22.01     0.009 C 
ENDBRANCH  79  80
ENDBRANCH  78  79
END_RES LEU A  96
BEGIN_RES VAL A  98
REMARK  1 active torsions:
REMARK  status: ('A' for Active; 'I' for Inactive)
REMARK   27  A    between atoms: CA   and  CB  
ROOT
ATOM     83  CA  VAL A  98      -3.928   2.082  14.897  1.00 19.83     0.180 C 
ENDROOT
BRANCH  83  84
ATOM     84  CB  VAL A  98      -5.203   2.807  15.281  1.00 17.87     0.009 C 
ATOM     85  CG2 VAL A  98      -4.913   4.263  15.537  1.00 29.90     0.012 C 
ATOM     86  CG1 VAL A  98      -5.807   2.155  16.507  1.00 14.79     0.012 C 
ENDBRANCH  83  84
END_RES VAL A  98
BEGIN_RES ASN A 112
REMARK  2 active torsions:
REMARK  status: ('A' for Active; 'I' for Inactive)
REMARK   28  A    between atoms: CA   and  CB  
REMARK   29  A    between atoms: CB   and  CG  
REMARK       I    between atoms: CG   and  ND2 
ROOT
ATOM     87  CA  ASN A 112     -11.790  -8.793  14.069  1.00 37.70     0.185 C 
ENDROOT
BRANCH  87  88
ATOM     88  CB  ASN A 112     -12.992  -7.945  14.465  1.00 26.24     0.137 C 
BRANCH  88  89
ATOM     89  CG  ASN A 112     -13.950  -8.668  15.384  1.00 21.77     0.217 C 
ATOM     90  ND2 ASN A 112     -13.677  -8.603  16.688  1.00  9.31    -0.370 N 
ATOM     91  H04 ASN A 112     -14.279  -9.067  17.353  1.00  9.31     0.159 HD
ATOM     92  H05 ASN A 112     -12.869  -8.089  17.009  1.00  9.31     0.159 HD
ATOM     93  OD1 ASN A 112     -14.923  -9.284  14.933  1.00 21.61    -0.274 OA
ENDBRANCH  88  89
ENDBRANCH  87  88
END_RES ASN A 112
BEGIN_RES PHE A 114
REMARK  2 active torsions:
REMARK  status: ('A' for Active; 'I' for Inactive)
REMARK   30  A    between atoms: CA   and  CB  
REMARK   31  A    between atoms: CB   and  CG  
ROOT
ATOM     94  CA  PHE A 114      -7.754  -3.619  17.012  1.00 26.06     0.180 C 
ENDROOT
BRANCH  94  95
ATOM     95  CB  PHE A 114      -8.890  -3.080  17.867  1.00 19.95     0.073 C 
BRANCH  95  96
ATOM     96  CG  PHE A 114      -8.745  -1.630  18.198  1.00 17.65    -0.056 A 
ATOM     97  CD1 PHE A 114      -8.677  -0.672  17.190  1.00 13.01     0.007 A 
ATOM     98  CE1 PHE A 114      -8.513   0.672  17.496  1.00  6.74     0.001 A 
ATOM     99  CZ  PHE A 114      -8.418   1.079  18.824  1.00  6.27     0.000 A 
ATOM    100  CE2 PHE A 114      -8.487   0.135  19.836  1.00 17.36     0.001 A 
ATOM    101  CD2 PHE A 114      -8.650  -1.218  19.520  1.00 18.39     0.007 A 
ENDBRANCH  95  96
ENDBRANCH  94  95
END_RES PHE A 114
BEGIN_RES VAL A 116
REMARK  1 active torsions:
REMARK  status: ('A' for Active; 'I' for Inactive)
REMARK   32  A    between atoms: CA   and  CB  
ROOT
ATOM    102  CA  VAL A 116      -2.467   0.283  18.565  1.00 13.48     0.180 C 
ENDROOT
BRANCH 102 103
ATOM    103  CB  VAL A 116      -3.101   1.238  19.599  1.00 20.86     0.009 C 
ATOM    104  CG1 VAL A 116      -3.047   2.674  19.070  1.00 25.01     0.012 C 
ATOM    105  CG2 VAL A 116      -4.515   0.817  19.924  1.00 25.34     0.012 C 
ENDBRANCH 102 103
END_RES VAL A 116
BEGIN_RES ILE A 123
REMARK  2 active torsions:
REMARK  status: ('A' for Active; 'I' for Inactive)
REMARK   33  A    between atoms: CA   and  CB  
REMARK   34  A    between atoms: CB   and  CG1 
ROOT
ATOM    106  CA  ILE A 123       1.557  -1.626  23.222  1.00 15.07     0.180 C 
ENDROOT
BRANCH 106 107
ATOM    107  CB  ILE A 123       1.697  -0.112  23.461  1.00 14.41     0.013 C 
ATOM    108  CG2 ILE A 123       3.097   0.206  23.955  1.00 18.35     0.012 C 
BRANCH 107 109
ATOM    109  CG1 ILE A 123       1.403   0.657  22.175  1.00 15.23     0.002 C 
ATOM    110  CD1 ILE A 123       0.226   1.596  22.287  1.00 14.67     0.005 C 
ENDBRANCH 107 109
ENDBRANCH 106 107
END_RES ILE A 123
BEGIN_RES LEU A 124
REMARK  2 active torsions:
REMARK  status: ('A' for Active; 'I' for Inactive)
REMARK   35  A    between atoms: CA   and  CB  
REMARK   36  A    between atoms: CB   and  CG  
ROOT
ATOM    111  CA  LEU A 124      -2.057  -2.686  23.524  1.00 11.86     0.177 C 
ENDROOT
BRANCH 111 112
ATOM    112  CB  LEU A 124      -2.698  -1.652  24.429  1.00 14.60     0.038 C 
BRANCH 112 113
ATOM    113  CG  LEU A 124      -2.626  -0.252  23.838  1.00 16.19    -0.020 C 
ATOM    114  CD1 LEU A 124      -4.047   0.205  23.457  1.00 22.07     0.009 C 
ATOM    115  CD2 LEU A 124      -1.983   0.681  24.833  1.00  9.12     0.009 C 
ENDBRANCH 112 113
ENDBRANCH 111 112
END_RES LEU A 124
BEGIN_RES PHE A 126
REMARK  2 active torsions:
REMARK  status: ('A' for Active; 'I' for Inactive)
REMARK   37  A    between atoms: CA   and  CB  
REMARK   38  A    between atoms: CB   and  CG  
ROOT
ATOM    116  CA  PHE A 126      -8.784  -4.792  22.233  1.00 23.15     0.180 C 
ENDROOT
BRANCH 116 117
ATOM    117  CB  PHE A 126      -9.823  -4.011  21.461  1.00 20.65     0.073 C 
BRANCH 117 118
ATOM    118  CG  PHE A 126     -10.949  -3.541  22.297  1.00 23.65    -0.056 A 
ATOM    119  CD2 PHE A 126     -12.214  -4.081  22.146  1.00 36.63     0.007 A 
ATOM    120  CE2 PHE A 126     -13.279  -3.636  22.940  1.00 36.27     0.001 A 
ATOM    121  CZ  PHE A 126     -13.069  -2.645  23.886  1.00 18.06     0.000 A 
ATOM    122  CE1 PHE A 126     -11.808  -2.105  24.042  1.00  5.50     0.001 A 
ATOM    123  CD1 PHE A 126     -10.753  -2.556  23.249  1.00 15.29     0.007 A 
ENDBRANCH 117 118
ENDBRANCH 116 117
END_RES PHE A 126
BEGIN_RES TRP A 131
REMARK  2 active torsions:
REMARK  status: ('A' for Active; 'I' for Inactive)
REMARK   39  A    between atoms: CA   and  CB  
REMARK   40  A    between atoms: CB   and  CG  
ROOT
ATOM    124  CA  TRP A 131      -8.096  -3.335  26.542  1.00 14.52     0.181 C 
ENDROOT
BRANCH 124 125
ATOM    125  CB  TRP A 131      -7.651  -1.877  26.607  1.00 13.06     0.075 C 
BRANCH 125 126
ATOM    126  CG  TRP A 131      -8.039  -1.055  25.398  1.00 16.97    -0.028 A 
ATOM    127  CD2 TRP A 131      -9.118  -0.121  25.314  1.00 11.34    -0.002 A 
ATOM    128  CE2 TRP A 131      -9.110   0.419  24.012  1.00  5.87     0.042 A 
ATOM    129  CE3 TRP A 131     -10.095   0.311  26.218  1.00  3.80     0.014 A 
ATOM    130  CZ2 TRP A 131     -10.040   1.372  23.593  1.00  1.35     0.030 A 
ATOM    131  NE1 TRP A 131      -8.074  -0.161  23.333  1.00 13.90    -0.365 N 
ATOM    132  CH2 TRP A 131     -10.986   1.778  24.501  1.00  1.00     0.002 A 
ATOM    133  CZ3 TRP A 131     -11.020   1.254  25.807  1.00  1.00     0.001 A 
ATOM    134  CD1 TRP A 131      -7.434  -1.045  24.171  1.00 17.22     0.096 A 
ATOM    135  H07 TRP A 131      -7.820   0.028  22.374  1.00 13.90     0.165 HD
ENDBRANCH 125 126
ENDBRANCH 124 125
END_RES TRP A 131
BEGIN_RES LEU A 148
REMARK  2 active torsions:
REMARK  status: ('A' for Active; 'I' for Inactive)
REMARK   41  A    between atoms: CA   and  CB  
REMARK   42  A    between atoms: CB   and  CG  
ROOT
ATOM    136  CA  LEU A 148      -9.018   3.259  29.295  1.00 16.99     0.177 C 
ENDROOT
BRANCH 136 137
ATOM    137  CB  LEU A 148      -8.166   2.574  28.236  1.00  6.39     0.038 C 
BRANCH 137 138
ATOM    138  CG  LEU A 148      -7.540   3.364  27.105  1.00  1.00    -0.020 C 
ATOM    139  CD2 LEU A 148      -8.604   4.031  26.284  1.00  1.00     0.009 C 
ATOM    140  CD1 LEU A 148      -6.727   2.408  26.251  1.00  2.71     0.009 C 
ENDBRANCH 137 138
ENDBRANCH 136 137
END_RES LEU A 148
BEGIN_RES THR A 154
REMARK  2 active torsions:
REMARK  status: ('A' for Active; 'I' for Inactive)
REMARK   43  A    between atoms: CA   and  CB  
REMARK   44  A    between atoms: CB   and  OG1 
ROOT
ATOM    141  CA  THR A 154     -15.990   3.959  24.426  1.00 20.45     0.205 C 
ENDROOT
BRANCH 141 142
ATOM    142  CB  THR A 154     -14.777   4.829  24.694  1.00 16.79     0.146 C 
ATOM    143  CG2 THR A 154     -13.677   4.516  23.698  1.00 20.24     0.042 C 
BRANCH 142 144
ATOM    144  OG1 THR A 154     -15.152   6.205  24.552  1.00 18.84    -0.393 OA
ATOM    145  H06 THR A 154     -14.768   6.560  23.747  1.00 18.84     0.210 HD
ENDBRANCH 142 144
ENDBRANCH 141 142
END_RES THR A 154
BEGIN_RES VAL A 158
REMARK  1 active torsions:
REMARK  status: ('A' for Active; 'I' for Inactive)
REMARK   45  A    between atoms: CA   and  CB  
ROOT
ATOM    146  CA  VAL A 158     -15.487  -0.189  19.892  1.00 15.49     0.180 C 
ENDROOT
BRANCH 146 147
ATOM    147  CB  VAL A 158     -14.291  -0.273  20.822  1.00  6.52     0.009 C 
ATOM    148  CG1 VAL A 158     -13.205  -1.140  20.227  1.00  1.00     0.012 C 
ATOM    149  CG2 VAL A 158     -13.782   1.112  21.076  1.00  5.99     0.012 C 
ENDBRANCH 146 147
END_RES VAL A 158
BEGIN_RES LEU A 161
REMARK  2 active torsions:
REMARK  status: ('A' for Active; 'I' for Inactive)
REMARK   46  A    between atoms: CA   and  CB  
REMARK   47  A    between atoms: CB   and  CG  
ROOT
ATOM    150  CA  LEU A 161     -18.031  -1.858  15.935  1.00 13.31     0.177 C 
ENDROOT
BRANCH 150 151
ATOM    151  CB  LEU A 161     -17.046  -0.706  16.001  1.00 14.13     0.038 C 
BRANCH 151 152
ATOM    152  CG  LEU A 161     -17.645   0.695  16.000  1.00 19.39    -0.020 C 
ATOM    153  CD2 LEU A 161     -17.978   1.120  14.590  1.00 27.75     0.009 C 
ATOM    154  CD1 LEU A 161     -16.652   1.649  16.605  1.00 18.59     0.009 C 
ENDBRANCH 151 152
ENDBRANCH 150 151
END_RES LEU A 161
BEGIN_RES GLN A 168
REMARK  3 active torsions:
REMARK  status: ('A' for Active; 'I' for Inactive)
REMARK   48  A    between atoms: CA   and  CB  
REMARK   49  A    between atoms: CB   and  CG  
REMARK   50  A    between atoms: CG   and  CD  
REMARK       I    between atoms: CD   and  NE2 
ROOT
ATOM    155  CA  GLN A 168     -22.035  -6.020   8.155  1.00 30.94     0.177 C 
ENDROOT
BRANCH 155 156
ATOM    156  CB  GLN A 168     -23.054  -5.218   8.946  1.00 41.76     0.044 C 
BRANCH 156 157
ATOM    157  CG  GLN A 168     -24.481  -5.426   8.517  1.00 61.20     0.105 C 
BRANCH 157 158
ATOM    158  CD  GLN A 168     -24.978  -4.294   7.639  1.00 75.49     0.215 C 
ATOM    159  NE2 GLN A 168     -24.817  -4.453   6.324  1.00 85.00    -0.370 N 
ATOM    160  H06 GLN A 168     -25.125  -3.733   5.687  1.00 85.00     0.159 HD
ATOM    161  H07 GLN A 168     -24.385  -5.294   5.966  1.00 85.00     0.159 HD
ATOM    162  OE1 GLN A 168     -25.497  -3.283   8.132  1.00 73.64    -0.274 OA
ENDBRANCH 157 158
ENDBRANCH 156 157
ENDBRANCH 155 156
END_RES GLN A 168
ENDMDL
MODEL 7
REMARK VINA RESULT:      -9.4      1.467      5.158
REMARK  Name = human_CD1d_DDM_pred.rank_0
REMARK  16 active torsions:
REMARK  status: ('A' for Active; 'I' for Inactive)
REMARK    1  A    between atoms: O_2  and  C_23
REMARK    2  A    between atoms: O_2  and  C_24
REMARK    3  A    between atoms: C_3  and  C_5
REMARK    4  A    between atoms: C_5  and  C_7
REMARK    5  A    between atoms: C_7  and  C_9
REMARK    6  A    between atoms: O_8  and  C_27
REMARK    7  A    between atoms: O_8  and  C_30
REMARK    8  A    between atoms: C_9  and  C_11
REMARK    9  A    between atoms: C_11  and  C_13
REMARK   10  A    between atoms: C_13  and  C_15
REMARK   11  A    between atoms: C_15  and  C_17
REMARK   12  A    between atoms: C_17  and  C_19
REMARK   13  A    between atoms: C_19  and  C_21
REMARK   14  A    between atoms: C_21  and  C_23
REMARK   15  A    between atoms: C_28  and  C_29
REMARK   16  A    between atoms: C_34  and  C_35
REMARK                            x       y       z     vdW  Elec       q    Type
REMARK                         _______ _______ _______ _____ _____    ______ ____
ROOT
ATOM      1  O   UNL     1     -12.188   2.014  14.354  0.00  0.00    +0.000 OA
ATOM      2  O   UNL     1     -15.685   3.964  13.263  0.00  0.00    +0.000 OA
ATOM      3  O   UNL     1     -14.554   4.328  15.848  0.00  0.00    +0.000 OA
ATOM      4  C   UNL     1     -12.836   2.716  15.387  0.00  0.00    +0.000 C 
ATOM      5  C   UNL     1     -13.826   3.740  14.801  0.00  0.00    +0.000 C 
ATOM      6  C   UNL     1     -14.803   3.030  13.829  0.00  0.00    +0.000 C 
ATOM      7  C   UNL     1     -13.975   2.318  12.763  0.00  0.00    +0.000 C 
ATOM      8  C   UNL     1     -13.204   1.255  13.559  0.00  0.00    +0.000 C 
ENDROOT
BRANCH   8  10
ATOM      9  O   UNL     1     -12.894  -1.045  13.250  0.00  0.00    +0.000 OA
ATOM     10  C   UNL     1     -12.426   0.254  12.754  0.00  0.00    +0.000 C 
ENDBRANCH   8  10
BRANCH   7  11
ATOM     11  O   UNL     1     -14.689   1.825  11.654  0.00  0.00    +0.000 OA
BRANCH  11  16
ATOM     12  O   UNL     1     -13.720   0.972   9.692  0.00  0.00    +0.000 OA
ATOM     13  O   UNL     1     -16.781  -1.069   9.528  0.00  0.00    +0.000 OA
ATOM     14  O   UNL     1     -17.715   1.576   8.933  0.00  0.00    +0.000 OA
ATOM     15  O   UNL     1     -16.172   3.704   9.915  0.00  0.00    +0.000 OA
ATOM     16  C   UNL     1     -14.322   2.137  10.282  0.00  0.00    +0.000 C 
ATOM     17  C   UNL     1     -15.563   2.499   9.455  0.00  0.00    +0.000 C 
ATOM     18  C   UNL     1     -16.554   1.339   9.680  0.00  0.00    +0.000 C 
ATOM     19  C   UNL     1     -15.888   0.008   9.203  0.00  0.00    +0.000 C 
ATOM     20  C   UNL     1     -14.541  -0.216   9.902  0.00  0.00    +0.000 C 
BRANCH  20  22
ATOM     21  O   UNL     1     -13.273  -0.967   8.080  0.00  0.00    +0.000 OA
ATOM     22  C   UNL     1     -13.789  -1.368   9.314  0.00  0.00    +0.000 C 
ENDBRANCH  20  22
ENDBRANCH  11  16
ENDBRANCH   7  11
BRANCH   4  23
ATOM     23  O   UNL     1     -11.869   3.388  16.133  0.00  0.00    +0.000 OA
BRANCH  23  24
ATOM     24  C   UNL     1     -11.133   4.320  15.336  0.00  0.00    +0.000 C 
BRANCH  24  25
ATOM     25  C   UNL     1      -9.681   4.417  15.843  0.00  0.00    +0.000 C 
BRANCH  25  26
ATOM     26  C   UNL     1      -9.000   5.612  15.178  0.00  0.00    +0.000 C 
BRANCH  26  27
ATOM     27  C   UNL     1     -10.059   6.641  14.720  0.00  0.00    +0.000 C 
BRANCH  27  28
ATOM     28  C   UNL     1      -9.800   8.007  15.325  0.00  0.00    +0.000 C 
BRANCH  28  29
ATOM     29  C   UNL     1      -8.809   8.773  14.465  0.00  0.00    +0.000 C 
BRANCH  29  30
ATOM     30  C   UNL     1      -7.644   9.250  15.286  0.00  0.00    +0.000 C 
BRANCH  30  31
ATOM     31  C   UNL     1      -6.844   8.091  15.752  0.00  0.00    +0.000 C 
BRANCH  31  32
ATOM     32  C   UNL     1      -5.518   8.515  16.331  0.00  0.00    +0.000 C 
BRANCH  32  33
ATOM     33  C   UNL     1      -5.554   9.999  16.652  0.00  0.00    +0.000 C 
BRANCH  33  35
ATOM     34  C   UNL     1      -4.162   9.054  18.466  0.00  0.00    +0.000 C 
ATOM     35  C   UNL     1      -4.763  10.311  17.884  0.00  0.00    +0.000 C 
ENDBRANCH  33  35
ENDBRANCH  32  33
ENDBRANCH  31  32
ENDBRANCH  30  31
ENDBRANCH  29  30
ENDBRANCH  28  29
ENDBRANCH  27  28
ENDBRANCH  26  27
ENDBRANCH  25  26
ENDBRANCH  24  25
ENDBRANCH  23  24
ENDBRANCH   4  23
TORSDOF 16
BEGIN_RES LEU A  10
REMARK  2 active torsions:
REMARK  status: ('A' for Active; 'I' for Inactive)
REMARK    1  A    between atoms: CA   and  CB  
REMARK    2  A    between atoms: CB   and  CG  
ROOT
ATOM      1  CA  LEU A  10     -10.775  -4.871   5.898  1.00 25.14     0.177 C 
ENDROOT
BRANCH   1   2
ATOM      2  CB  LEU A  10     -12.191  -4.387   6.226  1.00 17.87     0.038 C 
BRANCH   2   3
ATOM      3  CG  LEU A  10     -12.790  -3.434   5.189  1.00 24.95    -0.020 C 
ATOM      4  CD2 LEU A  10     -11.928  -2.222   5.087  1.00 26.38     0.009 C 
ATOM      5  CD1 LEU A  10     -14.212  -3.050   5.562  1.00 28.12     0.009 C 
ENDBRANCH   2   3
ENDBRANCH   1   2
END_RES LEU A  10
BEGIN_RES CYS A  12
REMARK  2 active torsions:
REMARK  status: ('A' for Active; 'I' for Inactive)
REMARK    3  A    between atoms: CA   and  CB  
REMARK    4  A    between atoms: CB   and  SG  
ROOT
ATOM      6  CA  CYS A  12      -8.555   0.470   8.750  1.00 23.16     0.185 C 
ENDROOT
BRANCH   6   7
ATOM      7  CB  CYS A  12      -9.828   0.763   9.555  1.00 20.43     0.105 C 
BRANCH   7   8
ATOM      8  SG  CYS A  12     -10.606   2.381   9.261  1.00 24.64    -0.180 SA
ATOM      9  H04 CYS A  12     -11.855   2.372   9.745  1.00 24.64     0.101 HD
ENDBRANCH   7   8
ENDBRANCH   6   7
END_RES CYS A  12
BEGIN_RES GLN A  14
REMARK  3 active torsions:
REMARK  status: ('A' for Active; 'I' for Inactive)
REMARK    5  A    between atoms: CA   and  CB  
REMARK    6  A    between atoms: CB   and  CG  
REMARK    7  A    between atoms: CG   and  CD  
REMARK       I    between atoms: CD   and  NE2 
ROOT
ATOM     10  CA  GLN A  14      -4.645   5.402  11.377  1.00 10.43     0.177 C 
ENDROOT
BRANCH  10  11
ATOM     11  CB  GLN A  14      -5.541   5.549  12.608  1.00 14.45     0.044 C 
BRANCH  11  12
ATOM     12  CG  GLN A  14      -6.638   6.577  12.453  1.00 13.74     0.105 C 
BRANCH  12  13
ATOM     13  CD  GLN A  14      -6.100   7.958  12.168  1.00 16.29     0.215 C 
ATOM     14  NE2 GLN A  14      -6.768   8.679  11.294  1.00  8.57    -0.370 N 
ATOM     15  H06 GLN A  14      -6.455   9.611  11.064  1.00  8.57     0.159 HD
ATOM     16  H07 GLN A  14      -7.593   8.300  10.853  1.00  8.57     0.159 HD
ATOM     17  OE1 GLN A  14      -5.097   8.372  12.730  1.00 23.55    -0.274 OA
ENDBRANCH  12  13
ENDBRANCH  11  12
ENDBRANCH  10  11
END_RES GLN A  14
BEGIN_RES SER A  16
REMARK  2 active torsions:
REMARK  status: ('A' for Active; 'I' for Inactive)
REMARK    8  A    between atoms: CA   and  CB  
REMARK    9  A    between atoms: CB   and  OG  
ROOT
ATOM     18  CA  SER A  16      -1.305  10.019  14.282  1.00  2.34     0.200 C 
ENDROOT
BRANCH  18  19
ATOM     19  CB  SER A  16      -2.242   9.935  15.479  1.00  3.12     0.199 C 
BRANCH  19  20
ATOM     20  OG  SER A  16      -1.965   8.773  16.240  1.00  1.00    -0.398 OA
ATOM     21  H04 SER A  16      -1.144   8.894  16.723  1.00  1.00     0.209 HD
ENDBRANCH  19  20
ENDBRANCH  18  19
END_RES SER A  16
BEGIN_RES LEU A  32
REMARK  2 active torsions:
REMARK  status: ('A' for Active; 'I' for Inactive)
REMARK   10  A    between atoms: CA   and  CB  
REMARK   11  A    between atoms: CB   and  CG  
ROOT
ATOM     22  CA  LEU A  32     -10.272  -4.106   1.587  1.00 16.16     0.177 C 
ENDROOT
BRANCH  22  23
ATOM     23  CB  LEU A  32     -11.613  -3.858   0.880  1.00 12.35     0.038 C 
BRANCH  23  24
ATOM     24  CG  LEU A  32     -12.491  -5.126   0.854  1.00  9.77    -0.020 C 
ATOM     25  CD1 LEU A  32     -13.026  -5.423   2.234  1.00  4.35     0.009 C 
ATOM     26  CD2 LEU A  32     -13.637  -4.965  -0.111  1.00 10.60     0.009 C 
ENDBRANCH  23  24
ENDBRANCH  22  23
END_RES LEU A  32
BEGIN_RES HIS A  38
REMARK  2 active torsions:
REMARK  status: ('A' for Active; 'I' for Inactive)
REMARK   12  A    between atoms: CA   and  CB  
REMARK   13  A    between atoms: CB   and  CG  
ROOT
ATOM     27  CA  HIS A  38     -10.959   4.941   1.621  1.00 16.94     0.182 C 
ENDROOT
BRANCH  27  28
ATOM     28  CB  HIS A  38     -11.810   4.840   2.881  1.00 15.47     0.095 C 
BRANCH  28  29
ATOM     29  CG  HIS A  38     -12.983   3.923   2.746  1.00 18.62     0.053 A 
ATOM     30  CD2 HIS A  38     -14.150   4.067   2.074  1.00 15.06     0.116 A 
ATOM     31  NE2 HIS A  38     -14.864   2.911   2.257  1.00 18.12    -0.359 N 
ATOM     32  CE1 HIS A  38     -14.164   2.087   3.013  1.00 14.78     0.207 A 
ATOM     33  H06 HIS A  38     -15.779   2.720   1.874  1.00 18.12     0.166 HD
ATOM     34  ND1 HIS A  38     -13.025   2.673   3.323  1.00 16.58    -0.247 NA
ENDBRANCH  28  29
ENDBRANCH  27  28
END_RES HIS A  38
BEGIN_RES TRP A  63
REMARK  2 active torsions:
REMARK  status: ('A' for Active; 'I' for Inactive)
REMARK   14  A    between atoms: CA   and  CB  
REMARK   15  A    between atoms: CB   and  CG  
ROOT
ATOM     35  CA  TRP A  63     -22.437   6.257   6.543  1.00 27.04     0.181 C 
ENDROOT
BRANCH  35  36
ATOM     36  CB  TRP A  63     -22.360   6.642   5.068  1.00 31.37     0.075 C 
BRANCH  36  37
ATOM     37  CG  TRP A  63     -20.954   6.731   4.514  1.00 34.37    -0.028 A 
ATOM     38  CD2 TRP A  63     -19.902   5.767   4.657  1.00 33.79    -0.002 A 
ATOM     39  CE3 TRP A  63     -19.782   4.552   5.335  1.00 32.99     0.014 A 
ATOM     40  CE2 TRP A  63     -18.797   6.241   3.916  1.00 35.84     0.042 A 
ATOM     41  CZ3 TRP A  63     -18.584   3.858   5.255  1.00 32.93     0.001 A 
ATOM     42  CH2 TRP A  63     -17.503   4.356   4.510  1.00 39.24     0.002 A 
ATOM     43  CZ2 TRP A  63     -17.591   5.544   3.834  1.00 37.99     0.030 A 
ATOM     44  NE1 TRP A  63     -19.165   7.433   3.354  1.00 37.98    -0.365 N 
ATOM     45  H06 TRP A  63     -18.580   8.010   2.766  1.00 37.98     0.165 HD
ATOM     46  CD1 TRP A  63     -20.458   7.718   3.721  1.00 38.16     0.096 A 
ENDBRANCH  36  37
ENDBRANCH  35  36
END_RES TRP A  63
BEGIN_RES LEU A  66
REMARK  2 active torsions:
REMARK  status: ('A' for Active; 'I' for Inactive)
REMARK   16  A    between atoms: CA   and  CB  
REMARK   17  A    between atoms: CB   and  CG  
ROOT
ATOM     47  CA  LEU A  66     -20.004   6.489  11.120  1.00 10.90     0.177 C 
ENDROOT
BRANCH  47  48
ATOM     48  CB  LEU A  66     -19.626   5.453  10.069  1.00 13.57     0.038 C 
BRANCH  48  49
ATOM     49  CG  LEU A  66     -19.513   4.000  10.528  1.00  8.73    -0.020 C 
ATOM     50  CD1 LEU A  66     -19.398   3.924  12.028  1.00 14.23     0.009 C 
ATOM     51  CD2 LEU A  66     -20.740   3.256  10.066  1.00  1.92     0.009 C 
ENDBRANCH  48  49
ENDBRANCH  47  48
END_RES LEU A  66
BEGIN_RES PHE A  70
REMARK  2 active torsions:
REMARK  status: ('A' for Active; 'I' for Inactive)
REMARK   18  A    between atoms: CA   and  CB  
REMARK   19  A    between atoms: CB   and  CG  
ROOT
ATOM     52  CA  PHE A  70     -14.974   9.434  13.165  1.00  8.78     0.180 C 
ENDROOT
BRANCH  52  53
ATOM     53  CB  PHE A  70     -14.707   9.132  11.681  1.00  6.33     0.073 C 
BRANCH  53  54
ATOM     54  CG  PHE A  70     -13.946   7.854  11.458  1.00  3.42    -0.056 A 
ATOM     55  CD1 PHE A  70     -13.764   7.342  10.182  1.00 13.88     0.007 A 
ATOM     56  CE1 PHE A  70     -13.092   6.123   9.985  1.00 12.71     0.001 A 
ATOM     57  CZ  PHE A  70     -12.597   5.410  11.077  1.00  4.21     0.000 A 
ATOM     58  CE2 PHE A  70     -12.770   5.911  12.354  1.00  2.83     0.001 A 
ATOM     59  CD2 PHE A  70     -13.443   7.130  12.541  1.00  1.00     0.007 A 
ENDBRANCH  53  54
ENDBRANCH  52  53
END_RES PHE A  70
BEGIN_RES TYR A  73
REMARK  3 active torsions:
REMARK  status: ('A' for Active; 'I' for Inactive)
REMARK   20  A    between atoms: CA   and  CB  
REMARK   21  A    between atoms: CB   and  CG  
REMARK   22  A    between atoms: CZ   and  OH  
ROOT
ATOM     60  CA  TYR A  73     -13.212  10.166  17.260  1.00 12.17     0.180 C 
ENDROOT
BRANCH  60  61
ATOM     61  CB  TYR A  73     -13.301   8.846  16.517  1.00 12.84     0.073 C 
BRANCH  61  62
ATOM     62  CG  TYR A  73     -13.436   7.674  17.424  1.00 15.89    -0.056 A 
ATOM     63  CD1 TYR A  73     -12.368   6.840  17.672  1.00 16.00     0.010 A 
ATOM     64  CE1 TYR A  73     -12.500   5.723  18.497  1.00 13.55     0.037 A 
ATOM     65  CZ  TYR A  73     -13.724   5.450  19.075  1.00 18.13     0.065 A 
ATOM     66  CE2 TYR A  73     -14.805   6.267  18.845  1.00 15.89     0.037 A 
ATOM     67  CD2 TYR A  73     -14.656   7.376  18.021  1.00 21.86     0.010 A 
BRANCH  65  68
ATOM     68  OH  TYR A  73     -13.875   4.359  19.896  1.00 12.12    -0.361 OA
ATOM     69  H08 TYR A  73     -14.572   4.531  20.533  1.00 12.12     0.217 HD
ENDBRANCH  65  68
ENDBRANCH  61  62
ENDBRANCH  60  61
END_RES TYR A  73
BEGIN_RES PHE A  77
REMARK  2 active torsions:
REMARK  status: ('A' for Active; 'I' for Inactive)
REMARK   23  A    between atoms: CA   and  CB  
REMARK   24  A    between atoms: CB   and  CG  
ROOT
ATOM     70  CA  PHE A  77      -8.400  10.581  20.110  1.00 17.17     0.180 C 
ENDROOT
BRANCH  70  71
ATOM     71  CB  PHE A  77      -8.228   9.750  18.851  1.00 10.44     0.073 C 
BRANCH  71  72
ATOM     72  CG  PHE A  77      -8.038   8.289  19.114  1.00  6.07    -0.056 A 
ATOM     73  CD2 PHE A  77      -6.930   7.839  19.795  1.00  9.61     0.007 A 
ATOM     74  CE2 PHE A  77      -6.746   6.484  20.046  1.00  1.00     0.001 A 
ATOM     75  CZ  PHE A  77      -7.688   5.567  19.610  1.00  1.92     0.000 A 
ATOM     76  CE1 PHE A  77      -8.802   6.001  18.929  1.00  9.25     0.001 A 
ATOM     77  CD1 PHE A  77      -8.973   7.363  18.683  1.00  9.63     0.007 A 
ENDBRANCH  71  72
ENDBRANCH  70  71
END_RES PHE A  77
BEGIN_RES LEU A  96
REMARK  2 active torsions:
REMARK  status: ('A' for Active; 'I' for Inactive)
REMARK   25  A    between atoms: CA   and  CB  
REMARK   26  A    between atoms: CB   and  CG  
ROOT
ATOM     78  CA  LEU A  96       0.717   6.481  17.359  1.00 16.08     0.177 C 
ENDROOT
BRANCH  78  79
ATOM     79  CB  LEU A  96      -0.370   7.101  18.230  1.00 18.83     0.038 C 
BRANCH  79  80
ATOM     80  CG  LEU A  96      -0.154   6.929  19.733  1.00 19.03    -0.020 C 
ATOM     81  CD1 LEU A  96      -1.408   7.359  20.459  1.00 28.17     0.009 C 
ATOM     82  CD2 LEU A  96       0.117   5.479  20.065  1.00 22.01     0.009 C 
ENDBRANCH  79  80
ENDBRANCH  78  79
END_RES LEU A  96
BEGIN_RES VAL A  98
REMARK  1 active torsions:
REMARK  status: ('A' for Active; 'I' for Inactive)
REMARK   27  A    between atoms: CA   and  CB  
ROOT
ATOM     83  CA  VAL A  98      -3.928   2.082  14.897  1.00 19.83     0.180 C 
ENDROOT
BRANCH  83  84
ATOM     84  CB  VAL A  98      -5.203   2.807  15.281  1.00 17.87     0.009 C 
ATOM     85  CG2 VAL A  98      -5.064   3.402  16.658  1.00 29.90     0.012 C 
ATOM     86  CG1 VAL A  98      -6.370   1.843  15.227  1.00 14.79     0.012 C 
ENDBRANCH  83  84
END_RES VAL A  98
BEGIN_RES ASN A 112
REMARK  2 active torsions:
REMARK  status: ('A' for Active; 'I' for Inactive)
REMARK   28  A    between atoms: CA   and  CB  
REMARK   29  A    between atoms: CB   and  CG  
REMARK       I    between atoms: CG   and  ND2 
ROOT
ATOM     87  CA  ASN A 112     -11.790  -8.793  14.069  1.00 37.70     0.185 C 
ENDROOT
BRANCH  87  88
ATOM     88  CB  ASN A 112     -12.992  -7.945  14.465  1.00 26.24     0.137 C 
BRANCH  88  89
ATOM     89  CG  ASN A 112     -13.959  -8.674  15.371  1.00 21.77     0.217 C 
ATOM     90  ND2 ASN A 112     -13.672  -8.656  16.672  1.00  9.31    -0.370 N 
ATOM     91  H04 ASN A 112     -14.279  -9.127  17.329  1.00  9.31     0.159 HD
ATOM     92  H05 ASN A 112     -12.849  -8.172  17.002  1.00  9.31     0.159 HD
ATOM     93  OD1 ASN A 112     -14.950  -9.252  14.910  1.00 21.61    -0.274 OA
ENDBRANCH  88  89
ENDBRANCH  87  88
END_RES ASN A 112
BEGIN_RES PHE A 114
REMARK  2 active torsions:
REMARK  status: ('A' for Active; 'I' for Inactive)
REMARK   30  A    between atoms: CA   and  CB  
REMARK   31  A    between atoms: CB   and  CG  
ROOT
ATOM     94  CA  PHE A 114      -7.754  -3.619  17.012  1.00 26.06     0.180 C 
ENDROOT
BRANCH  94  95
ATOM     95  CB  PHE A 114      -8.890  -3.080  17.867  1.00 19.95     0.073 C 
BRANCH  95  96
ATOM     96  CG  PHE A 114      -9.131  -1.617  17.678  1.00 17.65    -0.056 A 
ATOM     97  CD1 PHE A 114      -8.078  -0.708  17.736  1.00 13.01     0.007 A 
ATOM     98  CE1 PHE A 114      -8.306   0.654  17.590  1.00  6.74     0.001 A 
ATOM     99  CZ  PHE A 114      -9.598   1.127  17.379  1.00  6.27     0.000 A 
ATOM    100  CE2 PHE A 114     -10.653   0.231  17.318  1.00 17.36     0.001 A 
ATOM    101  CD2 PHE A 114     -10.417  -1.140  17.467  1.00 18.39     0.007 A 
ENDBRANCH  95  96
ENDBRANCH  94  95
END_RES PHE A 114
BEGIN_RES VAL A 116
REMARK  1 active torsions:
REMARK  status: ('A' for Active; 'I' for Inactive)
REMARK   32  A    between atoms: CA   and  CB  
ROOT
ATOM    102  CA  VAL A 116      -2.467   0.283  18.565  1.00 13.48     0.180 C 
ENDROOT
BRANCH 102 103
ATOM    103  CB  VAL A 116      -3.101   1.238  19.599  1.00 20.86     0.009 C 
ATOM    104  CG1 VAL A 116      -2.604   2.665  19.350  1.00 25.01     0.012 C 
ATOM    105  CG2 VAL A 116      -4.609   1.158  19.552  1.00 25.34     0.012 C 
ENDBRANCH 102 103
END_RES VAL A 116
BEGIN_RES ILE A 123
REMARK  2 active torsions:
REMARK  status: ('A' for Active; 'I' for Inactive)
REMARK   33  A    between atoms: CA   and  CB  
REMARK   34  A    between atoms: CB   and  CG1 
ROOT
ATOM    106  CA  ILE A 123       1.557  -1.626  23.222  1.00 15.07     0.180 C 
ENDROOT
BRANCH 106 107
ATOM    107  CB  ILE A 123       1.697  -0.112  23.461  1.00 14.41     0.013 C 
ATOM    108  CG2 ILE A 123       3.115   0.214  23.895  1.00 18.35     0.012 C 
BRANCH 107 109
ATOM    109  CG1 ILE A 123       1.343   0.660  22.192  1.00 15.23     0.002 C 
ATOM    110  CD1 ILE A 123       0.222   1.653  22.381  1.00 14.67     0.005 C 
ENDBRANCH 107 109
ENDBRANCH 106 107
END_RES ILE A 123
BEGIN_RES LEU A 124
REMARK  2 active torsions:
REMARK  status: ('A' for Active; 'I' for Inactive)
REMARK   35  A    between atoms: CA   and  CB  
REMARK   36  A    between atoms: CB   and  CG  
ROOT
ATOM    111  CA  LEU A 124      -2.057  -2.686  23.524  1.00 11.86     0.177 C 
ENDROOT
BRANCH 111 112
ATOM    112  CB  LEU A 124      -2.698  -1.652  24.429  1.00 14.60     0.038 C 
BRANCH 112 113
ATOM    113  CG  LEU A 124      -2.615  -0.250  23.844  1.00 16.19    -0.020 C 
ATOM    114  CD1 LEU A 124      -4.006   0.161  23.326  1.00 22.07     0.009 C 
ATOM    115  CD2 LEU A 124      -2.101   0.703  24.894  1.00  9.12     0.009 C 
ENDBRANCH 112 113
ENDBRANCH 111 112
END_RES LEU A 124
BEGIN_RES PHE A 126
REMARK  2 active torsions:
REMARK  status: ('A' for Active; 'I' for Inactive)
REMARK   37  A    between atoms: CA   and  CB  
REMARK   38  A    between atoms: CB   and  CG  
ROOT
ATOM    116  CA  PHE A 126      -8.784  -4.792  22.233  1.00 23.15     0.180 C 
ENDROOT
BRANCH 116 117
ATOM    117  CB  PHE A 126      -9.823  -4.011  21.461  1.00 20.65     0.073 C 
BRANCH 117 118
ATOM    118  CG  PHE A 126     -10.956  -3.554  22.294  1.00 23.65    -0.056 A 
ATOM    119  CD2 PHE A 126     -12.206  -4.132  22.164  1.00 36.63     0.007 A 
ATOM    120  CE2 PHE A 126     -13.279  -3.698  22.955  1.00 36.27     0.001 A 
ATOM    121  CZ  PHE A 126     -13.090  -2.680  23.878  1.00 18.06     0.000 A 
ATOM    122  CE1 PHE A 126     -11.844  -2.102  24.012  1.00  5.50     0.001 A 
ATOM    123  CD1 PHE A 126     -10.781  -2.542  23.223  1.00 15.29     0.007 A 
ENDBRANCH 117 118
ENDBRANCH 116 117
END_RES PHE A 126
BEGIN_RES TRP A 131
REMARK  2 active torsions:
REMARK  status: ('A' for Active; 'I' for Inactive)
REMARK   39  A    between atoms: CA   and  CB  
REMARK   40  A    between atoms: CB   and  CG  
ROOT
ATOM    124  CA  TRP A 131      -8.096  -3.335  26.542  1.00 14.52     0.181 C 
ENDROOT
BRANCH 124 125
ATOM    125  CB  TRP A 131      -7.651  -1.877  26.607  1.00 13.06     0.075 C 
BRANCH 125 126
ATOM    126  CG  TRP A 131      -8.052  -1.051  25.405  1.00 16.97    -0.028 A 
ATOM    127  CD2 TRP A 131      -9.137  -0.122  25.333  1.00 11.34    -0.002 A 
ATOM    128  CE2 TRP A 131      -9.141   0.424  24.035  1.00  5.87     0.042 A 
ATOM    129  CE3 TRP A 131     -10.108   0.301  26.248  1.00  3.80     0.014 A 
ATOM    130  CZ2 TRP A 131     -10.079   1.374  23.627  1.00  1.35     0.030 A 
ATOM    131  NE1 TRP A 131      -8.108  -0.148  23.345  1.00 13.90    -0.365 N 
ATOM    132  CH2 TRP A 131     -11.019   1.772  24.545  1.00  1.00     0.002 A 
ATOM    133  CZ3 TRP A 131     -11.040   1.242  25.848  1.00  1.00     0.001 A 
ATOM    134  CD1 TRP A 131      -7.457  -1.032  24.173  1.00 17.22     0.096 A 
ATOM    135  H07 TRP A 131      -7.862   0.047  22.385  1.00 13.90     0.165 HD
ENDBRANCH 125 126
ENDBRANCH 124 125
END_RES TRP A 131
BEGIN_RES LEU A 148
REMARK  2 active torsions:
REMARK  status: ('A' for Active; 'I' for Inactive)
REMARK   41  A    between atoms: CA   and  CB  
REMARK   42  A    between atoms: CB   and  CG  
ROOT
ATOM    136  CA  LEU A 148      -9.018   3.259  29.295  1.00 16.99     0.177 C 
ENDROOT
BRANCH 136 137
ATOM    137  CB  LEU A 148      -8.166   2.574  28.236  1.00  6.39     0.038 C 
BRANCH 137 138
ATOM    138  CG  LEU A 148      -7.541   3.363  27.104  1.00  1.00    -0.020 C 
ATOM    139  CD2 LEU A 148      -8.607   4.011  26.269  1.00  1.00     0.009 C 
ATOM    140  CD1 LEU A 148      -6.708   2.412  26.264  1.00  2.71     0.009 C 
ENDBRANCH 137 138
ENDBRANCH 136 137
END_RES LEU A 148
BEGIN_RES THR A 154
REMARK  2 active torsions:
REMARK  status: ('A' for Active; 'I' for Inactive)
REMARK   43  A    between atoms: CA   and  CB  
REMARK   44  A    between atoms: CB   and  OG1 
ROOT
ATOM    141  CA  THR A 154     -15.990   3.959  24.426  1.00 20.45     0.205 C 
ENDROOT
BRANCH 141 142
ATOM    142  CB  THR A 154     -14.777   4.829  24.694  1.00 16.79     0.146 C 
ATOM    143  CG2 THR A 154     -13.622   4.405  23.807  1.00 20.24     0.042 C 
BRANCH 142 144
ATOM    144  OG1 THR A 154     -15.109   6.192  24.401  1.00 18.84    -0.393 OA
ATOM    145  H06 THR A 154     -15.841   6.217  23.781  1.00 18.84     0.210 HD
ENDBRANCH 142 144
ENDBRANCH 141 142
END_RES THR A 154
BEGIN_RES VAL A 158
REMARK  1 active torsions:
REMARK  status: ('A' for Active; 'I' for Inactive)
REMARK   45  A    between atoms: CA   and  CB  
ROOT
ATOM    146  CA  VAL A 158     -15.487  -0.189  19.892  1.00 15.49     0.180 C 
ENDROOT
BRANCH 146 147
ATOM    147  CB  VAL A 158     -14.291  -0.273  20.822  1.00  6.52     0.009 C 
ATOM    148  CG1 VAL A 158     -13.270  -1.257  20.300  1.00  1.00     0.012 C 
ATOM    149  CG2 VAL A 158     -13.690   1.092  20.956  1.00  5.99     0.012 C 
ENDBRANCH 146 147
END_RES VAL A 158
BEGIN_RES LEU A 161
REMARK  2 active torsions:
REMARK  status: ('A' for Active; 'I' for Inactive)
REMARK   46  A    between atoms: CA   and  CB  
REMARK   47  A    between atoms: CB   and  CG  
ROOT
ATOM    150  CA  LEU A 161     -18.031  -1.858  15.935  1.00 13.31     0.177 C 
ENDROOT
BRANCH 150 151
ATOM    151  CB  LEU A 161     -17.046  -0.706  16.001  1.00 14.13     0.038 C 
BRANCH 151 152
ATOM    152  CG  LEU A 161     -17.410   0.539  15.202  1.00 19.39    -0.020 C 
ATOM    153  CD2 LEU A 161     -18.838   0.941  15.482  1.00 27.75     0.009 C 
ATOM    154  CD1 LEU A 161     -17.234   0.246  13.737  1.00 18.59     0.009 C 
ENDBRANCH 151 152
ENDBRANCH 150 151
END_RES LEU A 161
BEGIN_RES GLN A 168
REMARK  3 active torsions:
REMARK  status: ('A' for Active; 'I' for Inactive)
REMARK   48  A    between atoms: CA   and  CB  
REMARK   49  A    between atoms: CB   and  CG  
REMARK   50  A    between atoms: CG   and  CD  
REMARK       I    between atoms: CD   and  NE2 
ROOT
ATOM    155  CA  GLN A 168     -22.035  -6.020   8.155  1.00 30.94     0.177 C 
ENDROOT
BRANCH 155 156
ATOM    156  CB  GLN A 168     -23.054  -5.218   8.946  1.00 41.76     0.044 C 
BRANCH 156 157
ATOM    157  CG  GLN A 168     -24.481  -5.428   8.518  1.00 61.20     0.105 C 
BRANCH 157 158
ATOM    158  CD  GLN A 168     -24.981  -4.296   7.642  1.00 75.49     0.215 C 
ATOM    159  NE2 GLN A 168     -24.799  -4.443   6.328  1.00 85.00    -0.370 N 
ATOM    160  H06 GLN A 168     -25.108  -3.722   5.692  1.00 85.00     0.159 HD
ATOM    161  H07 GLN A 168     -24.352  -5.275   5.970  1.00 85.00     0.159 HD
ATOM    162  OE1 GLN A 168     -25.520  -3.295   8.135  1.00 73.64    -0.274 OA
ENDBRANCH 157 158
ENDBRANCH 156 157
ENDBRANCH 155 156
END_RES GLN A 168
ENDMDL
MODEL 8
REMARK VINA RESULT:      -9.4      2.036      5.117
REMARK  Name = human_CD1d_DDM_pred.rank_0
REMARK  16 active torsions:
REMARK  status: ('A' for Active; 'I' for Inactive)
REMARK    1  A    between atoms: O_2  and  C_23
REMARK    2  A    between atoms: O_2  and  C_24
REMARK    3  A    between atoms: C_3  and  C_5
REMARK    4  A    between atoms: C_5  and  C_7
REMARK    5  A    between atoms: C_7  and  C_9
REMARK    6  A    between atoms: O_8  and  C_27
REMARK    7  A    between atoms: O_8  and  C_30
REMARK    8  A    between atoms: C_9  and  C_11
REMARK    9  A    between atoms: C_11  and  C_13
REMARK   10  A    between atoms: C_13  and  C_15
REMARK   11  A    between atoms: C_15  and  C_17
REMARK   12  A    between atoms: C_17  and  C_19
REMARK   13  A    between atoms: C_19  and  C_21
REMARK   14  A    between atoms: C_21  and  C_23
REMARK   15  A    between atoms: C_28  and  C_29
REMARK   16  A    between atoms: C_34  and  C_35
REMARK                            x       y       z     vdW  Elec       q    Type
REMARK                         _______ _______ _______ _____ _____    ______ ____
ROOT
ATOM      1  O   UNL     1     -14.387   1.291  10.971  0.00  0.00    +0.000 OA
ATOM      2  O   UNL     1     -16.199   5.020  11.157  0.00  0.00    +0.000 OA
ATOM      3  O   UNL     1     -15.529   3.599  13.530  0.00  0.00    +0.000 OA
ATOM      4  C   UNL     1     -14.780   1.708  12.256  0.00  0.00    +0.000 C 
ATOM      5  C   UNL     1     -15.010   3.231  12.279  0.00  0.00    +0.000 C 
ATOM      6  C   UNL     1     -16.013   3.629  11.167  0.00  0.00    +0.000 C 
ATOM      7  C   UNL     1     -15.467   3.124   9.834  0.00  0.00    +0.000 C 
ATOM      8  C   UNL     1     -15.480   1.597   9.996  0.00  0.00    +0.000 C 
ENDROOT
BRANCH   8  10
ATOM      9  O   UNL     1     -15.132  -0.593   9.245  0.00  0.00    +0.000 OA
ATOM     10  C   UNL     1     -15.167   0.794   8.767  0.00  0.00    +0.000 C 
ENDBRANCH   8  10
BRANCH   7  11
ATOM     11  O   UNL     1     -16.115   3.604   8.679  0.00  0.00    +0.000 OA
BRANCH  11  16
ATOM     12  O   UNL     1     -14.388   4.927   7.795  0.00  0.00    +0.000 OA
ATOM     13  O   UNL     1     -14.421   2.459   5.062  0.00  0.00    +0.000 OA
ATOM     14  O   UNL     1     -16.871   3.898   4.684  0.00  0.00    +0.000 OA
ATOM     15  O   UNL     1     -17.961   5.140   6.952  0.00  0.00    +0.000 OA
ATOM     16  C   UNL     1     -15.797   4.888   8.077  0.00  0.00    +0.000 C 
ATOM     17  C   UNL     1     -16.551   5.070   6.753  0.00  0.00    +0.000 C 
ATOM     18  C   UNL     1     -16.240   3.803   5.931  0.00  0.00    +0.000 C 
ATOM     19  C   UNL     1     -14.693   3.701   5.727  0.00  0.00    +0.000 C 
ATOM     20  C   UNL     1     -13.958   3.734   7.072  0.00  0.00    +0.000 C 
BRANCH  20  22
ATOM     21  O   UNL     1     -12.171   5.185   6.631  0.00  0.00    +0.000 OA
ATOM     22  C   UNL     1     -12.476   3.849   6.897  0.00  0.00    +0.000 C 
ENDBRANCH  20  22
ENDBRANCH  11  16
ENDBRANCH   7  11
BRANCH   4  23
ATOM     23  O   UNL     1     -13.763   1.384  13.151  0.00  0.00    +0.000 OA
BRANCH  23  24
ATOM     24  C   UNL     1     -12.526   2.011  12.802  0.00  0.00    +0.000 C 
BRANCH  24  25
ATOM     25  C   UNL     1     -11.798   2.487  14.075  0.00  0.00    +0.000 C 
BRANCH  25  26
ATOM     26  C   UNL     1     -10.299   2.570  13.791  0.00  0.00    +0.000 C 
BRANCH  26  27
ATOM     27  C   UNL     1      -9.678   3.762  14.555  0.00  0.00    +0.000 C 
BRANCH  27  28
ATOM     28  C   UNL     1      -9.449   4.948  13.639  0.00  0.00    +0.000 C 
BRANCH  28  29
ATOM     29  C   UNL     1      -9.776   6.237  14.373  0.00  0.00    +0.000 C 
BRANCH  29  30
ATOM     30  C   UNL     1      -8.837   6.450  15.527  0.00  0.00    +0.000 C 
BRANCH  30  31
ATOM     31  C   UNL     1      -9.591   6.930  16.712  0.00  0.00    +0.000 C 
BRANCH  31  32
ATOM     32  C   UNL     1      -9.521   5.956  17.860  0.00  0.00    +0.000 C 
BRANCH  32  33
ATOM     33  C   UNL     1      -8.360   5.000  17.646  0.00  0.00    +0.000 C 
BRANCH  33  35
ATOM     34  C   UNL     1      -9.192   4.389  19.894  0.00  0.00    +0.000 C 
ATOM     35  C   UNL     1      -8.206   4.058  18.800  0.00  0.00    +0.000 C 
ENDBRANCH  33  35
ENDBRANCH  32  33
ENDBRANCH  31  32
ENDBRANCH  30  31
ENDBRANCH  29  30
ENDBRANCH  28  29
ENDBRANCH  27  28
ENDBRANCH  26  27
ENDBRANCH  25  26
ENDBRANCH  24  25
ENDBRANCH  23  24
ENDBRANCH   4  23
TORSDOF 16
BEGIN_RES LEU A  10
REMARK  2 active torsions:
REMARK  status: ('A' for Active; 'I' for Inactive)
REMARK    1  A    between atoms: CA   and  CB  
REMARK    2  A    between atoms: CB   and  CG  
ROOT
ATOM      1  CA  LEU A  10     -10.775  -4.871   5.898  1.00 25.14     0.177 C 
ENDROOT
BRANCH   1   2
ATOM      2  CB  LEU A  10     -12.191  -4.387   6.226  1.00 17.87     0.038 C 
BRANCH   2   3
ATOM      3  CG  LEU A  10     -12.420  -2.893   5.987  1.00 24.95    -0.020 C 
ATOM      4  CD2 LEU A  10     -13.672  -2.476   6.682  1.00 26.38     0.009 C 
ATOM      5  CD1 LEU A  10     -12.506  -2.588   4.501  1.00 28.12     0.009 C 
ENDBRANCH   2   3
ENDBRANCH   1   2
END_RES LEU A  10
BEGIN_RES CYS A  12
REMARK  2 active torsions:
REMARK  status: ('A' for Active; 'I' for Inactive)
REMARK    3  A    between atoms: CA   and  CB  
REMARK    4  A    between atoms: CB   and  SG  
ROOT
ATOM      6  CA  CYS A  12      -8.555   0.470   8.750  1.00 23.16     0.185 C 
ENDROOT
BRANCH   6   7
ATOM      7  CB  CYS A  12      -9.828   0.763   9.555  1.00 20.43     0.105 C 
BRANCH   7   8
ATOM      8  SG  CYS A  12     -11.399   0.622   8.648  1.00 24.64    -0.180 SA
ATOM      9  H04 CYS A  12     -12.383   1.173   9.370  1.00 24.64     0.101 HD
ENDBRANCH   7   8
ENDBRANCH   6   7
END_RES CYS A  12
BEGIN_RES GLN A  14
REMARK  3 active torsions:
REMARK  status: ('A' for Active; 'I' for Inactive)
REMARK    5  A    between atoms: CA   and  CB  
REMARK    6  A    between atoms: CB   and  CG  
REMARK    7  A    between atoms: CG   and  CD  
REMARK       I    between atoms: CD   and  NE2 
ROOT
ATOM     10  CA  GLN A  14      -4.645   5.402  11.377  1.00 10.43     0.177 C 
ENDROOT
BRANCH  10  11
ATOM     11  CB  GLN A  14      -5.541   5.549  12.608  1.00 14.45     0.044 C 
BRANCH  11  12
ATOM     12  CG  GLN A  14      -6.565   6.655  12.497  1.00 13.74     0.105 C 
BRANCH  12  13
ATOM     13  CD  GLN A  14      -5.930   8.024  12.425  1.00 16.29     0.215 C 
ATOM     14  NE2 GLN A  14      -6.492   8.887  11.607  1.00  8.57    -0.370 N 
ATOM     15  H06 GLN A  14      -6.112   9.819  11.518  1.00  8.57     0.159 HD
ATOM     16  H07 GLN A  14      -7.303   8.619  11.068  1.00  8.57     0.159 HD
ATOM     17  OE1 GLN A  14      -4.950   8.300  13.098  1.00 23.55    -0.274 OA
ENDBRANCH  12  13
ENDBRANCH  11  12
ENDBRANCH  10  11
END_RES GLN A  14
BEGIN_RES SER A  16
REMARK  2 active torsions:
REMARK  status: ('A' for Active; 'I' for Inactive)
REMARK    8  A    between atoms: CA   and  CB  
REMARK    9  A    between atoms: CB   and  OG  
ROOT
ATOM     18  CA  SER A  16      -1.305  10.019  14.282  1.00  2.34     0.200 C 
ENDROOT
BRANCH  18  19
ATOM     19  CB  SER A  16      -2.242   9.935  15.479  1.00  3.12     0.199 C 
BRANCH  19  20
ATOM     20  OG  SER A  16      -3.462   9.319  15.107  1.00  1.00    -0.398 OA
ATOM     21  H04 SER A  16      -4.104   9.428  15.812  1.00  1.00     0.209 HD
ENDBRANCH  19  20
ENDBRANCH  18  19
END_RES SER A  16
BEGIN_RES LEU A  32
REMARK  2 active torsions:
REMARK  status: ('A' for Active; 'I' for Inactive)
REMARK   10  A    between atoms: CA   and  CB  
REMARK   11  A    between atoms: CB   and  CG  
ROOT
ATOM     22  CA  LEU A  32     -10.272  -4.106   1.587  1.00 16.16     0.177 C 
ENDROOT
BRANCH  22  23
ATOM     23  CB  LEU A  32     -11.613  -3.858   0.880  1.00 12.35     0.038 C 
BRANCH  23  24
ATOM     24  CG  LEU A  32     -12.525  -5.101   0.925  1.00  9.77    -0.020 C 
ATOM     25  CD1 LEU A  32     -13.018  -5.340   2.333  1.00  4.35     0.009 C 
ATOM     26  CD2 LEU A  32     -13.699  -4.940  -0.004  1.00 10.60     0.009 C 
ENDBRANCH  23  24
ENDBRANCH  22  23
END_RES LEU A  32
BEGIN_RES HIS A  38
REMARK  2 active torsions:
REMARK  status: ('A' for Active; 'I' for Inactive)
REMARK   12  A    between atoms: CA   and  CB  
REMARK   13  A    between atoms: CB   and  CG  
ROOT
ATOM     27  CA  HIS A  38     -10.959   4.941   1.621  1.00 16.94     0.182 C 
ENDROOT
BRANCH  27  28
ATOM     28  CB  HIS A  38     -11.810   4.840   2.881  1.00 15.47     0.095 C 
BRANCH  28  29
ATOM     29  CG  HIS A  38     -13.270   5.050   2.642  1.00 18.62     0.053 A 
ATOM     30  CD2 HIS A  38     -14.221   4.215   2.160  1.00 15.06     0.116 A 
ATOM     31  NE2 HIS A  38     -15.406   4.905   2.174  1.00 18.12    -0.359 N 
ATOM     32  CE1 HIS A  38     -15.193   6.118   2.645  1.00 14.78     0.207 A 
ATOM     33  H06 HIS A  38     -16.299   4.542   1.871  1.00 18.12     0.166 HD
ATOM     34  ND1 HIS A  38     -13.913   6.234   2.934  1.00 16.58    -0.247 NA
ENDBRANCH  28  29
ENDBRANCH  27  28
END_RES HIS A  38
BEGIN_RES TRP A  63
REMARK  2 active torsions:
REMARK  status: ('A' for Active; 'I' for Inactive)
REMARK   14  A    between atoms: CA   and  CB  
REMARK   15  A    between atoms: CB   and  CG  
ROOT
ATOM     35  CA  TRP A  63     -22.437   6.257   6.543  1.00 27.04     0.181 C 
ENDROOT
BRANCH  35  36
ATOM     36  CB  TRP A  63     -22.360   6.642   5.068  1.00 31.37     0.075 C 
BRANCH  36  37
ATOM     37  CG  TRP A  63     -20.960   6.644   4.491  1.00 34.37    -0.028 A 
ATOM     38  CD2 TRP A  63     -20.289   7.736   3.846  1.00 33.79    -0.002 A 
ATOM     39  CE3 TRP A  63     -20.660   9.037   3.500  1.00 32.99     0.014 A 
ATOM     40  CE2 TRP A  63     -18.982   7.298   3.538  1.00 35.84     0.042 A 
ATOM     41  CZ3 TRP A  63     -19.730   9.850   2.867  1.00 32.93     0.001 A 
ATOM     42  CH2 TRP A  63     -18.439   9.385   2.573  1.00 39.24     0.002 A 
ATOM     43  CZ2 TRP A  63     -18.046   8.115   2.901  1.00 37.99     0.030 A 
ATOM     44  NE1 TRP A  63     -18.872   6.006   3.973  1.00 37.98    -0.365 N 
ATOM     45  H06 TRP A  63     -18.048   5.427   3.891  1.00 37.98     0.165 HD
ATOM     46  CD1 TRP A  63     -20.063   5.624   4.541  1.00 38.16     0.096 A 
ENDBRANCH  36  37
ENDBRANCH  35  36
END_RES TRP A  63
BEGIN_RES LEU A  66
REMARK  2 active torsions:
REMARK  status: ('A' for Active; 'I' for Inactive)
REMARK   16  A    between atoms: CA   and  CB  
REMARK   17  A    between atoms: CB   and  CG  
ROOT
ATOM     47  CA  LEU A  66     -20.004   6.489  11.120  1.00 10.90     0.177 C 
ENDROOT
BRANCH  47  48
ATOM     48  CB  LEU A  66     -19.626   5.453  10.069  1.00 13.57     0.038 C 
BRANCH  48  49
ATOM     49  CG  LEU A  66     -19.561   3.993  10.517  1.00  8.73    -0.020 C 
ATOM     50  CD1 LEU A  66     -19.599   3.897  12.020  1.00 14.23     0.009 C 
ATOM     51  CD2 LEU A  66     -20.734   3.258   9.922  1.00  1.92     0.009 C 
ENDBRANCH  48  49
ENDBRANCH  47  48
END_RES LEU A  66
BEGIN_RES PHE A  70
REMARK  2 active torsions:
REMARK  status: ('A' for Active; 'I' for Inactive)
REMARK   18  A    between atoms: CA   and  CB  
REMARK   19  A    between atoms: CB   and  CG  
ROOT
ATOM     52  CA  PHE A  70     -14.974   9.434  13.165  1.00  8.78     0.180 C 
ENDROOT
BRANCH  52  53
ATOM     53  CB  PHE A  70     -14.707   9.132  11.681  1.00  6.33     0.073 C 
BRANCH  53  54
ATOM     54  CG  PHE A  70     -13.899   7.882  11.461  1.00  3.42    -0.056 A 
ATOM     55  CD1 PHE A  70     -13.606   7.436  10.181  1.00 13.88     0.007 A 
ATOM     56  CE1 PHE A  70     -12.890   6.242   9.982  1.00 12.71     0.001 A 
ATOM     57  CZ  PHE A  70     -12.464   5.489  11.076  1.00  4.21     0.000 A 
ATOM     58  CE2 PHE A  70     -12.748   5.925  12.357  1.00  2.83     0.001 A 
ATOM     59  CD2 PHE A  70     -13.464   7.119  12.545  1.00  1.00     0.007 A 
ENDBRANCH  53  54
ENDBRANCH  52  53
END_RES PHE A  70
BEGIN_RES TYR A  73
REMARK  3 active torsions:
REMARK  status: ('A' for Active; 'I' for Inactive)
REMARK   20  A    between atoms: CA   and  CB  
REMARK   21  A    between atoms: CB   and  CG  
REMARK   22  A    between atoms: CZ   and  OH  
ROOT
ATOM     60  CA  TYR A  73     -13.212  10.166  17.260  1.00 12.17     0.180 C 
ENDROOT
BRANCH  60  61
ATOM     61  CB  TYR A  73     -13.301   8.846  16.517  1.00 12.84     0.073 C 
BRANCH  61  62
ATOM     62  CG  TYR A  73     -13.156   7.663  17.409  1.00 15.89    -0.056 A 
ATOM     63  CD1 TYR A  73     -13.284   6.382  16.919  1.00 16.00     0.010 A 
ATOM     64  CE1 TYR A  73     -13.180   5.274  17.759  1.00 13.55     0.037 A 
ATOM     65  CZ  TYR A  73     -12.944   5.465  19.106  1.00 18.13     0.065 A 
ATOM     66  CE2 TYR A  73     -12.810   6.734  19.620  1.00 15.89     0.037 A 
ATOM     67  CD2 TYR A  73     -12.917   7.826  18.769  1.00 21.86     0.010 A 
BRANCH  65  68
ATOM     68  OH  TYR A  73     -12.831   4.388  19.950  1.00 12.12    -0.361 OA
ATOM     69  H08 TYR A  73     -12.565   3.614  19.448  1.00 12.12     0.217 HD
ENDBRANCH  65  68
ENDBRANCH  61  62
ENDBRANCH  60  61
END_RES TYR A  73
BEGIN_RES PHE A  77
REMARK  2 active torsions:
REMARK  status: ('A' for Active; 'I' for Inactive)
REMARK   23  A    between atoms: CA   and  CB  
REMARK   24  A    between atoms: CB   and  CG  
ROOT
ATOM     70  CA  PHE A  77      -8.400  10.581  20.110  1.00 17.17     0.180 C 
ENDROOT
BRANCH  70  71
ATOM     71  CB  PHE A  77      -8.228   9.750  18.851  1.00 10.44     0.073 C 
BRANCH  71  72
ATOM     72  CG  PHE A  77      -7.247   8.630  18.997  1.00  6.07    -0.056 A 
ATOM     73  CD2 PHE A  77      -7.213   7.875  20.148  1.00  9.61     0.007 A 
ATOM     74  CE2 PHE A  77      -6.306   6.831  20.292  1.00  1.00     0.001 A 
ATOM     75  CZ  PHE A  77      -5.422   6.538  19.268  1.00  1.92     0.000 A 
ATOM     76  CE1 PHE A  77      -5.444   7.282  18.110  1.00  9.25     0.001 A 
ATOM     77  CD1 PHE A  77      -6.357   8.328  17.979  1.00  9.63     0.007 A 
ENDBRANCH  71  72
ENDBRANCH  70  71
END_RES PHE A  77
BEGIN_RES LEU A  96
REMARK  2 active torsions:
REMARK  status: ('A' for Active; 'I' for Inactive)
REMARK   25  A    between atoms: CA   and  CB  
REMARK   26  A    between atoms: CB   and  CG  
ROOT
ATOM     78  CA  LEU A  96       0.717   6.481  17.359  1.00 16.08     0.177 C 
ENDROOT
BRANCH  78  79
ATOM     79  CB  LEU A  96      -0.370   7.101  18.230  1.00 18.83     0.038 C 
BRANCH  79  80
ATOM     80  CG  LEU A  96      -0.208   6.842  19.728  1.00 19.03    -0.020 C 
ATOM     81  CD1 LEU A  96       0.476   8.034  20.357  1.00 28.17     0.009 C 
ATOM     82  CD2 LEU A  96      -1.559   6.665  20.381  1.00 22.01     0.009 C 
ENDBRANCH  79  80
ENDBRANCH  78  79
END_RES LEU A  96
BEGIN_RES VAL A  98
REMARK  1 active torsions:
REMARK  status: ('A' for Active; 'I' for Inactive)
REMARK   27  A    between atoms: CA   and  CB  
ROOT
ATOM     83  CA  VAL A  98      -3.928   2.082  14.897  1.00 19.83     0.180 C 
ENDROOT
BRANCH  83  84
ATOM     84  CB  VAL A  98      -5.203   2.807  15.281  1.00 17.87     0.009 C 
ATOM     85  CG2 VAL A  98      -5.169   3.174  16.742  1.00 29.90     0.012 C 
ATOM     86  CG1 VAL A  98      -6.397   1.928  14.975  1.00 14.79     0.012 C 
ENDBRANCH  83  84
END_RES VAL A  98
BEGIN_RES ASN A 112
REMARK  2 active torsions:
REMARK  status: ('A' for Active; 'I' for Inactive)
REMARK   28  A    between atoms: CA   and  CB  
REMARK   29  A    between atoms: CB   and  CG  
REMARK       I    between atoms: CG   and  ND2 
ROOT
ATOM     87  CA  ASN A 112     -11.790  -8.793  14.069  1.00 37.70     0.185 C 
ENDROOT
BRANCH  87  88
ATOM     88  CB  ASN A 112     -12.992  -7.945  14.465  1.00 26.24     0.137 C 
BRANCH  88  89
ATOM     89  CG  ASN A 112     -13.815  -8.564  15.573  1.00 21.77     0.217 C 
ATOM     90  ND2 ASN A 112     -14.965  -9.128  15.206  1.00  9.31    -0.370 N 
ATOM     91  H04 ASN A 112     -15.561  -9.557  15.900  1.00  9.31     0.159 HD
ATOM     92  H05 ASN A 112     -15.241  -9.127  14.234  1.00  9.31     0.159 HD
ATOM     93  OD1 ASN A 112     -13.427  -8.533  16.747  1.00 21.61    -0.274 OA
ENDBRANCH  88  89
ENDBRANCH  87  88
END_RES ASN A 112
BEGIN_RES PHE A 114
REMARK  2 active torsions:
REMARK  status: ('A' for Active; 'I' for Inactive)
REMARK   30  A    between atoms: CA   and  CB  
REMARK   31  A    between atoms: CB   and  CG  
ROOT
ATOM     94  CA  PHE A 114      -7.754  -3.619  17.012  1.00 26.06     0.180 C 
ENDROOT
BRANCH  94  95
ATOM     95  CB  PHE A 114      -8.890  -3.080  17.867  1.00 19.95     0.073 C 
BRANCH  95  96
ATOM     96  CG  PHE A 114      -9.161  -1.627  17.644  1.00 17.65    -0.056 A 
ATOM     97  CD1 PHE A 114     -10.464  -1.160  17.493  1.00 13.01     0.007 A 
ATOM     98  CE1 PHE A 114     -10.715   0.185  17.257  1.00  6.74     0.001 A 
ATOM     99  CZ  PHE A 114      -9.658   1.087  17.172  1.00  6.27     0.000 A 
ATOM    100  CE2 PHE A 114      -8.357   0.634  17.322  1.00 17.36     0.001 A 
ATOM    101  CD2 PHE A 114      -8.112  -0.723  17.558  1.00 18.39     0.007 A 
ENDBRANCH  95  96
ENDBRANCH  94  95
END_RES PHE A 114
BEGIN_RES VAL A 116
REMARK  1 active torsions:
REMARK  status: ('A' for Active; 'I' for Inactive)
REMARK   32  A    between atoms: CA   and  CB  
ROOT
ATOM    102  CA  VAL A 116      -2.467   0.283  18.565  1.00 13.48     0.180 C 
ENDROOT
BRANCH 102 103
ATOM    103  CB  VAL A 116      -3.101   1.238  19.599  1.00 20.86     0.009 C 
ATOM    104  CG1 VAL A 116      -2.693   2.679  19.282  1.00 25.01     0.012 C 
ATOM    105  CG2 VAL A 116      -4.603   1.079  19.629  1.00 25.34     0.012 C 
ENDBRANCH 102 103
END_RES VAL A 116
BEGIN_RES ILE A 123
REMARK  2 active torsions:
REMARK  status: ('A' for Active; 'I' for Inactive)
REMARK   33  A    between atoms: CA   and  CB  
REMARK   34  A    between atoms: CB   and  CG1 
ROOT
ATOM    106  CA  ILE A 123       1.557  -1.626  23.222  1.00 15.07     0.180 C 
ENDROOT
BRANCH 106 107
ATOM    107  CB  ILE A 123       1.697  -0.112  23.461  1.00 14.41     0.013 C 
ATOM    108  CG2 ILE A 123       3.083   0.201  23.996  1.00 18.35     0.012 C 
BRANCH 107 109
ATOM    109  CG1 ILE A 123       1.446   0.655  22.165  1.00 15.23     0.002 C 
ATOM    110  CD1 ILE A 123       0.181   1.478  22.183  1.00 14.67     0.005 C 
ENDBRANCH 107 109
ENDBRANCH 106 107
END_RES ILE A 123
BEGIN_RES LEU A 124
REMARK  2 active torsions:
REMARK  status: ('A' for Active; 'I' for Inactive)
REMARK   35  A    between atoms: CA   and  CB  
REMARK   36  A    between atoms: CB   and  CG  
ROOT
ATOM    111  CA  LEU A 124      -2.057  -2.686  23.524  1.00 11.86     0.177 C 
ENDROOT
BRANCH 111 112
ATOM    112  CB  LEU A 124      -2.698  -1.652  24.429  1.00 14.60     0.038 C 
BRANCH 112 113
ATOM    113  CG  LEU A 124      -2.626  -0.252  23.838  1.00 16.19    -0.020 C 
ATOM    114  CD1 LEU A 124      -4.035   0.174  23.384  1.00 22.07     0.009 C 
ATOM    115  CD2 LEU A 124      -2.054   0.697  24.862  1.00  9.12     0.009 C 
ENDBRANCH 112 113
ENDBRANCH 111 112
END_RES LEU A 124
BEGIN_RES PHE A 126
REMARK  2 active torsions:
REMARK  status: ('A' for Active; 'I' for Inactive)
REMARK   37  A    between atoms: CA   and  CB  
REMARK   38  A    between atoms: CB   and  CG  
ROOT
ATOM    116  CA  PHE A 126      -8.784  -4.792  22.233  1.00 23.15     0.180 C 
ENDROOT
BRANCH 116 117
ATOM    117  CB  PHE A 126      -9.823  -4.011  21.461  1.00 20.65     0.073 C 
BRANCH 117 118
ATOM    118  CG  PHE A 126     -10.953  -3.549  22.295  1.00 23.65    -0.056 A 
ATOM    119  CD2 PHE A 126     -12.210  -4.110  22.153  1.00 36.63     0.007 A 
ATOM    120  CE2 PHE A 126     -13.281  -3.672  22.945  1.00 36.27     0.001 A 
ATOM    121  CZ  PHE A 126     -13.083  -2.668  23.881  1.00 18.06     0.000 A 
ATOM    122  CE1 PHE A 126     -11.829  -2.108  24.027  1.00  5.50     0.001 A 
ATOM    123  CD1 PHE A 126     -10.769  -2.551  23.236  1.00 15.29     0.007 A 
ENDBRANCH 117 118
ENDBRANCH 116 117
END_RES PHE A 126
BEGIN_RES TRP A 131
REMARK  2 active torsions:
REMARK  status: ('A' for Active; 'I' for Inactive)
REMARK   39  A    between atoms: CA   and  CB  
REMARK   40  A    between atoms: CB   and  CG  
ROOT
ATOM    124  CA  TRP A 131      -8.096  -3.335  26.542  1.00 14.52     0.181 C 
ENDROOT
BRANCH 124 125
ATOM    125  CB  TRP A 131      -7.651  -1.877  26.607  1.00 13.06     0.075 C 
BRANCH 125 126
ATOM    126  CG  TRP A 131      -8.048  -1.052  25.403  1.00 16.97    -0.028 A 
ATOM    127  CD2 TRP A 131      -9.127  -0.116  25.330  1.00 11.34    -0.002 A 
ATOM    128  CE2 TRP A 131      -9.130   0.425  24.030  1.00  5.87     0.042 A 
ATOM    129  CE3 TRP A 131     -10.095   0.315  26.244  1.00  3.80     0.014 A 
ATOM    130  CZ2 TRP A 131     -10.062   1.381  23.620  1.00  1.35     0.030 A 
ATOM    131  NE1 TRP A 131      -8.101  -0.155  23.340  1.00 13.90    -0.365 N 
ATOM    132  CH2 TRP A 131     -10.999   1.787  24.538  1.00  1.00     0.002 A 
ATOM    133  CZ3 TRP A 131     -11.022   1.260  25.843  1.00  1.00     0.001 A 
ATOM    134  CD1 TRP A 131      -7.454  -1.041  24.170  1.00 17.22     0.096 A 
ATOM    135  H07 TRP A 131      -7.855   0.036  22.380  1.00 13.90     0.165 HD
ENDBRANCH 125 126
ENDBRANCH 124 125
END_RES TRP A 131
BEGIN_RES LEU A 148
REMARK  2 active torsions:
REMARK  status: ('A' for Active; 'I' for Inactive)
REMARK   41  A    between atoms: CA   and  CB  
REMARK   42  A    between atoms: CB   and  CG  
ROOT
ATOM    136  CA  LEU A 148      -9.018   3.259  29.295  1.00 16.99     0.177 C 
ENDROOT
BRANCH 136 137
ATOM    137  CB  LEU A 148      -8.166   2.574  28.236  1.00  6.39     0.038 C 
BRANCH 137 138
ATOM    138  CG  LEU A 148      -7.546   3.362  27.100  1.00  1.00    -0.020 C 
ATOM    139  CD2 LEU A 148      -8.615   4.032  26.287  1.00  1.00     0.009 C 
ATOM    140  CD1 LEU A 148      -6.742   2.405  26.240  1.00  2.71     0.009 C 
ENDBRANCH 137 138
ENDBRANCH 136 137
END_RES LEU A 148
BEGIN_RES THR A 154
REMARK  2 active torsions:
REMARK  status: ('A' for Active; 'I' for Inactive)
REMARK   43  A    between atoms: CA   and  CB  
REMARK   44  A    between atoms: CB   and  OG1 
ROOT
ATOM    141  CA  THR A 154     -15.990   3.959  24.426  1.00 20.45     0.205 C 
ENDROOT
BRANCH 141 142
ATOM    142  CB  THR A 154     -14.777   4.829  24.694  1.00 16.79     0.146 C 
ATOM    143  CG2 THR A 154     -13.668   4.498  23.713  1.00 20.24     0.042 C 
BRANCH 142 144
ATOM    144  OG1 THR A 154     -15.146   6.204  24.529  1.00 18.84    -0.393 OA
ATOM    145  H06 THR A 154     -14.896   6.699  25.312  1.00 18.84     0.210 HD
ENDBRANCH 142 144
ENDBRANCH 141 142
END_RES THR A 154
BEGIN_RES VAL A 158
REMARK  1 active torsions:
REMARK  status: ('A' for Active; 'I' for Inactive)
REMARK   45  A    between atoms: CA   and  CB  
ROOT
ATOM    146  CA  VAL A 158     -15.487  -0.189  19.892  1.00 15.49     0.180 C 
ENDROOT
BRANCH 146 147
ATOM    147  CB  VAL A 158     -14.291  -0.273  20.822  1.00  6.52     0.009 C 
ATOM    148  CG1 VAL A 158     -13.248  -1.221  20.275  1.00  1.00     0.012 C 
ATOM    149  CG2 VAL A 158     -13.719   1.100  20.994  1.00  5.99     0.012 C 
ENDBRANCH 146 147
END_RES VAL A 158
BEGIN_RES LEU A 161
REMARK  2 active torsions:
REMARK  status: ('A' for Active; 'I' for Inactive)
REMARK   46  A    between atoms: CA   and  CB  
REMARK   47  A    between atoms: CB   and  CG  
ROOT
ATOM    150  CA  LEU A 161     -18.031  -1.858  15.935  1.00 13.31     0.177 C 
ENDROOT
BRANCH 150 151
ATOM    151  CB  LEU A 161     -17.046  -0.706  16.001  1.00 14.13     0.038 C 
BRANCH 151 152
ATOM    152  CG  LEU A 161     -17.447   0.567  15.267  1.00 19.39    -0.020 C 
ATOM    153  CD2 LEU A 161     -18.783   1.060  15.767  1.00 27.75     0.009 C 
ATOM    154  CD1 LEU A 161     -17.524   0.275  13.793  1.00 18.59     0.009 C 
ENDBRANCH 151 152
ENDBRANCH 150 151
END_RES LEU A 161
BEGIN_RES GLN A 168
REMARK  3 active torsions:
REMARK  status: ('A' for Active; 'I' for Inactive)
REMARK   48  A    between atoms: CA   and  CB  
REMARK   49  A    between atoms: CB   and  CG  
REMARK   50  A    between atoms: CG   and  CD  
REMARK       I    between atoms: CD   and  NE2 
ROOT
ATOM    155  CA  GLN A 168     -22.035  -6.020   8.155  1.00 30.94     0.177 C 
ENDROOT
BRANCH 155 156
ATOM    156  CB  GLN A 168     -23.054  -5.218   8.946  1.00 41.76     0.044 C 
BRANCH 156 157
ATOM    157  CG  GLN A 168     -24.320  -5.964   9.269  1.00 61.20     0.105 C 
BRANCH 157 158
ATOM    158  CD  GLN A 168     -24.485  -6.178  10.761  1.00 75.49     0.215 C 
ATOM    159  NE2 GLN A 168     -23.650  -7.052  11.328  1.00 85.00    -0.370 N 
ATOM    160  H06 GLN A 168     -23.712  -7.239  12.318  1.00 85.00     0.159 HD
ATOM    161  H07 GLN A 168     -22.957  -7.525  10.765  1.00 85.00     0.159 HD
ATOM    162  OE1 GLN A 168     -25.356  -5.572  11.402  1.00 73.64    -0.274 OA
ENDBRANCH 157 158
ENDBRANCH 156 157
ENDBRANCH 155 156
END_RES GLN A 168
ENDMDL
MODEL 9
REMARK VINA RESULT:      -9.3      1.042      1.507
REMARK  Name = human_CD1d_DDM_pred.rank_0
REMARK  16 active torsions:
REMARK  status: ('A' for Active; 'I' for Inactive)
REMARK    1  A    between atoms: O_2  and  C_23
REMARK    2  A    between atoms: O_2  and  C_24
REMARK    3  A    between atoms: C_3  and  C_5
REMARK    4  A    between atoms: C_5  and  C_7
REMARK    5  A    between atoms: C_7  and  C_9
REMARK    6  A    between atoms: O_8  and  C_27
REMARK    7  A    between atoms: O_8  and  C_30
REMARK    8  A    between atoms: C_9  and  C_11
REMARK    9  A    between atoms: C_11  and  C_13
REMARK   10  A    between atoms: C_13  and  C_15
REMARK   11  A    between atoms: C_15  and  C_17
REMARK   12  A    between atoms: C_17  and  C_19
REMARK   13  A    between atoms: C_19  and  C_21
REMARK   14  A    between atoms: C_21  and  C_23
REMARK   15  A    between atoms: C_28  and  C_29
REMARK   16  A    between atoms: C_34  and  C_35
REMARK                            x       y       z     vdW  Elec       q    Type
REMARK                         _______ _______ _______ _____ _____    ______ ____
ROOT
ATOM      1  O   UNL     1     -11.271   1.615  12.371  0.00  0.00    +0.000 OA
ATOM      2  O   UNL     1     -12.832   2.718  16.055  0.00  0.00    +0.000 OA
ATOM      3  O   UNL     1     -14.462   1.455  14.095  0.00  0.00    +0.000 OA
ATOM      4  C   UNL     1     -12.664   1.469  12.505  0.00  0.00    +0.000 C 
ATOM      5  C   UNL     1     -13.062   1.466  13.993  0.00  0.00    +0.000 C 
ATOM      6  C   UNL     1     -12.504   2.732  14.690  0.00  0.00    +0.000 C 
ATOM      7  C   UNL     1     -10.994   2.766  14.473  0.00  0.00    +0.000 C 
ATOM      8  C   UNL     1     -10.854   2.929  12.953  0.00  0.00    +0.000 C 
ENDROOT
BRANCH   8  10
ATOM      9  O   UNL     1      -8.651   2.142  13.073  0.00  0.00    +0.000 OA
ATOM     10  C   UNL     1      -9.467   3.182  12.435  0.00  0.00    +0.000 C 
ENDBRANCH   8  10
BRANCH   7  11
ATOM     11  O   UNL     1     -10.280   3.707  15.239  0.00  0.00    +0.000 OA
BRANCH  11  16
ATOM     12  O   UNL     1     -11.082   4.969  17.049  0.00  0.00    +0.000 OA
ATOM     13  O   UNL     1      -7.550   5.004  18.091  0.00  0.00    +0.000 OA
ATOM     14  O   UNL     1      -7.578   6.711  15.787  0.00  0.00    +0.000 OA
ATOM     15  O   UNL     1      -9.640   6.283  13.932  0.00  0.00    +0.000 OA
ATOM     16  C   UNL     1     -10.843   4.989  15.632  0.00  0.00    +0.000 C 
ATOM     17  C   UNL     1      -9.861   6.130  15.332  0.00  0.00    +0.000 C 
ATOM     18  C   UNL     1      -8.533   5.705  15.989  0.00  0.00    +0.000 C 
ATOM     19  C   UNL     1      -8.768   5.509  17.522  0.00  0.00    +0.000 C 
ATOM     20  C   UNL     1      -9.905   4.513  17.781  0.00  0.00    +0.000 C 
BRANCH  20  22
ATOM     21  O   UNL     1     -11.219   3.439  19.398  0.00  0.00    +0.000 OA
ATOM     22  C   UNL     1     -10.290   4.466  19.227  0.00  0.00    +0.000 C 
ENDBRANCH  20  22
ENDBRANCH  11  16
ENDBRANCH   7  11
BRANCH   4  23
ATOM     23  O   UNL     1     -13.033   0.256  11.929  0.00  0.00    +0.000 OA
BRANCH  23  24
ATOM     24  C   UNL     1     -13.814   0.444  10.745  0.00  0.00    +0.000 C 
BRANCH  24  25
ATOM     25  C   UNL     1     -14.883  -0.662  10.636  0.00  0.00    +0.000 C 
BRANCH  25  26
ATOM     26  C   UNL     1     -15.977  -0.400  11.670  0.00  0.00    +0.000 C 
BRANCH  26  27
ATOM     27  C   UNL     1     -17.106   0.453  11.047  0.00  0.00    +0.000 C 
BRANCH  27  28
ATOM     28  C   UNL     1     -17.281   0.145   9.572  0.00  0.00    +0.000 C 
BRANCH  28  29
ATOM     29  C   UNL     1     -17.732   1.395   8.835  0.00  0.00    +0.000 C 
BRANCH  29  30
ATOM     30  C   UNL     1     -16.555   2.128   8.254  0.00  0.00    +0.000 C 
BRANCH  30  31
ATOM     31  C   UNL     1     -16.503   3.509   8.794  0.00  0.00    +0.000 C 
BRANCH  31  32
ATOM     32  C   UNL     1     -15.612   3.611  10.005  0.00  0.00    +0.000 C 
BRANCH  32  33
ATOM     33  C   UNL     1     -16.193   4.619  10.981  0.00  0.00    +0.000 C 
BRANCH  33  35
ATOM     34  C   UNL     1     -17.062   3.584  13.054  0.00  0.00    +0.000 C 
ATOM     35  C   UNL     1     -15.878   4.253  12.398  0.00  0.00    +0.000 C 
ENDBRANCH  33  35
ENDBRANCH  32  33
ENDBRANCH  31  32
ENDBRANCH  30  31
ENDBRANCH  29  30
ENDBRANCH  28  29
ENDBRANCH  27  28
ENDBRANCH  26  27
ENDBRANCH  25  26
ENDBRANCH  24  25
ENDBRANCH  23  24
ENDBRANCH   4  23
TORSDOF 16
BEGIN_RES LEU A  10
REMARK  2 active torsions:
REMARK  status: ('A' for Active; 'I' for Inactive)
REMARK    1  A    between atoms: CA   and  CB  
REMARK    2  A    between atoms: CB   and  CG  
ROOT
ATOM      1  CA  LEU A  10     -10.775  -4.871   5.898  1.00 25.14     0.177 C 
ENDROOT
BRANCH   1   2
ATOM      2  CB  LEU A  10     -12.191  -4.387   6.226  1.00 17.87     0.038 C 
BRANCH   2   3
ATOM      3  CG  LEU A  10     -12.433  -2.902   5.946  1.00 24.95    -0.020 C 
ATOM      4  CD2 LEU A  10     -13.672  -2.469   6.654  1.00 26.38     0.009 C 
ATOM      5  CD1 LEU A  10     -12.552  -2.644   4.454  1.00 28.12     0.009 C 
ENDBRANCH   2   3
ENDBRANCH   1   2
END_RES LEU A  10
BEGIN_RES CYS A  12
REMARK  2 active torsions:
REMARK  status: ('A' for Active; 'I' for Inactive)
REMARK    3  A    between atoms: CA   and  CB  
REMARK    4  A    between atoms: CB   and  SG  
ROOT
ATOM      6  CA  CYS A  12      -8.555   0.470   8.750  1.00 23.16     0.185 C 
ENDROOT
BRANCH   6   7
ATOM      7  CB  CYS A  12      -9.828   0.763   9.555  1.00 20.43     0.105 C 
BRANCH   7   8
ATOM      8  SG  CYS A  12     -10.926   2.045   8.877  1.00 24.64    -0.180 SA
ATOM      9  H04 CYS A  12     -10.917   3.114   9.684  1.00 24.64     0.101 HD
ENDBRANCH   7   8
ENDBRANCH   6   7
END_RES CYS A  12
BEGIN_RES GLN A  14
REMARK  3 active torsions:
REMARK  status: ('A' for Active; 'I' for Inactive)
REMARK    5  A    between atoms: CA   and  CB  
REMARK    6  A    between atoms: CB   and  CG  
REMARK    7  A    between atoms: CG   and  CD  
REMARK       I    between atoms: CD   and  NE2 
ROOT
ATOM     10  CA  GLN A  14      -4.645   5.402  11.377  1.00 10.43     0.177 C 
ENDROOT
BRANCH  10  11
ATOM     11  CB  GLN A  14      -5.541   5.549  12.608  1.00 14.45     0.044 C 
BRANCH  11  12
ATOM     12  CG  GLN A  14      -6.423   6.776  12.586  1.00 13.74     0.105 C 
BRANCH  12  13
ATOM     13  CD  GLN A  14      -5.838   7.921  13.380  1.00 16.29     0.215 C 
ATOM     14  NE2 GLN A  14      -6.654   8.913  13.664  1.00  8.57    -0.370 N 
ATOM     15  H06 GLN A  14      -6.319   9.705  14.194  1.00  8.57     0.159 HD
ATOM     16  H07 GLN A  14      -7.614   8.883  13.354  1.00  8.57     0.159 HD
ATOM     17  OE1 GLN A  14      -4.670   7.910  13.734  1.00 23.55    -0.274 OA
ENDBRANCH  12  13
ENDBRANCH  11  12
ENDBRANCH  10  11
END_RES GLN A  14
BEGIN_RES SER A  16
REMARK  2 active torsions:
REMARK  status: ('A' for Active; 'I' for Inactive)
REMARK    8  A    between atoms: CA   and  CB  
REMARK    9  A    between atoms: CB   and  OG  
ROOT
ATOM     18  CA  SER A  16      -1.305  10.019  14.282  1.00  2.34     0.200 C 
ENDROOT
BRANCH  18  19
ATOM     19  CB  SER A  16      -2.242   9.935  15.479  1.00  3.12     0.199 C 
BRANCH  19  20
ATOM     20  OG  SER A  16      -2.485   8.582  15.821  1.00  1.00    -0.398 OA
ATOM     21  H04 SER A  16      -2.536   8.497  16.776  1.00  1.00     0.209 HD
ENDBRANCH  19  20
ENDBRANCH  18  19
END_RES SER A  16
BEGIN_RES LEU A  32
REMARK  2 active torsions:
REMARK  status: ('A' for Active; 'I' for Inactive)
REMARK   10  A    between atoms: CA   and  CB  
REMARK   11  A    between atoms: CB   and  CG  
ROOT
ATOM     22  CA  LEU A  32     -10.272  -4.106   1.587  1.00 16.16     0.177 C 
ENDROOT
BRANCH  22  23
ATOM     23  CB  LEU A  32     -11.613  -3.858   0.880  1.00 12.35     0.038 C 
BRANCH  23  24
ATOM     24  CG  LEU A  32     -12.548  -5.081   0.976  1.00  9.77    -0.020 C 
ATOM     25  CD1 LEU A  32     -13.776  -4.741   1.785  1.00  4.35     0.009 C 
ATOM     26  CD2 LEU A  32     -12.956  -5.553  -0.395  1.00 10.60     0.009 C 
ENDBRANCH  23  24
ENDBRANCH  22  23
END_RES LEU A  32
BEGIN_RES HIS A  38
REMARK  2 active torsions:
REMARK  status: ('A' for Active; 'I' for Inactive)
REMARK   12  A    between atoms: CA   and  CB  
REMARK   13  A    between atoms: CB   and  CG  
ROOT
ATOM     27  CA  HIS A  38     -10.959   4.941   1.621  1.00 16.94     0.182 C 
ENDROOT
BRANCH  27  28
ATOM     28  CB  HIS A  38     -11.810   4.840   2.881  1.00 15.47     0.095 C 
BRANCH  28  29
ATOM     29  CG  HIS A  38     -13.002   3.950   2.735  1.00 18.62     0.053 A 
ATOM     30  CD2 HIS A  38     -14.164   4.124   2.062  1.00 15.06     0.116 A 
ATOM     31  NE2 HIS A  38     -14.903   2.982   2.233  1.00 18.12    -0.359 N 
ATOM     32  CE1 HIS A  38     -14.222   2.137   2.984  1.00 14.78     0.207 A 
ATOM     33  H06 HIS A  38     -15.821   2.814   1.847  1.00 18.12     0.166 HD
ATOM     34  ND1 HIS A  38     -13.072   2.696   3.301  1.00 16.58    -0.247 NA
ENDBRANCH  28  29
ENDBRANCH  27  28
END_RES HIS A  38
BEGIN_RES TRP A  63
REMARK  2 active torsions:
REMARK  status: ('A' for Active; 'I' for Inactive)
REMARK   14  A    between atoms: CA   and  CB  
REMARK   15  A    between atoms: CB   and  CG  
ROOT
ATOM     35  CA  TRP A  63     -22.437   6.257   6.543  1.00 27.04     0.181 C 
ENDROOT
BRANCH  35  36
ATOM     36  CB  TRP A  63     -22.360   6.642   5.068  1.00 31.37     0.075 C 
BRANCH  36  37
ATOM     37  CG  TRP A  63     -20.957   6.677   4.499  1.00 34.37    -0.028 A 
ATOM     38  CD2 TRP A  63     -19.916   5.711   4.698  1.00 33.79    -0.002 A 
ATOM     39  CE3 TRP A  63     -19.806   4.541   5.453  1.00 32.99     0.014 A 
ATOM     40  CE2 TRP A  63     -18.812   6.122   3.920  1.00 35.84     0.042 A 
ATOM     41  CZ3 TRP A  63     -18.617   3.828   5.410  1.00 32.93     0.001 A 
ATOM     42  CH2 TRP A  63     -17.536   4.263   4.626  1.00 39.24     0.002 A 
ATOM     43  CZ2 TRP A  63     -17.615   5.405   3.875  1.00 37.99     0.030 A 
ATOM     44  NE1 TRP A  63     -19.169   7.279   3.285  1.00 37.98    -0.365 N 
ATOM     45  H06 TRP A  63     -18.582   7.809   2.656  1.00 37.98     0.165 HD
ATOM     46  CD1 TRP A  63     -20.455   7.604   3.641  1.00 38.16     0.096 A 
ENDBRANCH  36  37
ENDBRANCH  35  36
END_RES TRP A  63
BEGIN_RES LEU A  66
REMARK  2 active torsions:
REMARK  status: ('A' for Active; 'I' for Inactive)
REMARK   16  A    between atoms: CA   and  CB  
REMARK   17  A    between atoms: CB   and  CG  
ROOT
ATOM     47  CA  LEU A  66     -20.004   6.489  11.120  1.00 10.90     0.177 C 
ENDROOT
BRANCH  47  48
ATOM     48  CB  LEU A  66     -19.626   5.453  10.069  1.00 13.57     0.038 C 
BRANCH  48  49
ATOM     49  CG  LEU A  66     -19.754   3.981  10.460  1.00  8.73    -0.020 C 
ATOM     50  CD1 LEU A  66     -20.326   3.848  11.847  1.00 14.23     0.009 C 
ATOM     51  CD2 LEU A  66     -20.653   3.298   9.462  1.00  1.92     0.009 C 
ENDBRANCH  48  49
ENDBRANCH  47  48
END_RES LEU A  66
BEGIN_RES PHE A  70
REMARK  2 active torsions:
REMARK  status: ('A' for Active; 'I' for Inactive)
REMARK   18  A    between atoms: CA   and  CB  
REMARK   19  A    between atoms: CB   and  CG  
ROOT
ATOM     52  CA  PHE A  70     -14.974   9.434  13.165  1.00  8.78     0.180 C 
ENDROOT
BRANCH  52  53
ATOM     53  CB  PHE A  70     -14.707   9.132  11.681  1.00  6.33     0.073 C 
BRANCH  53  54
ATOM     54  CG  PHE A  70     -13.959   7.846  11.457  1.00  3.42    -0.056 A 
ATOM     55  CD1 PHE A  70     -13.458   7.115  12.524  1.00 13.88     0.007 A 
ATOM     56  CE1 PHE A  70     -12.719   5.938  12.305  1.00 12.71     0.001 A 
ATOM     57  CZ  PHE A  70     -12.482   5.490  11.006  1.00  4.21     0.000 A 
ATOM     58  CE2 PHE A  70     -12.980   6.208   9.934  1.00  2.83     0.001 A 
ATOM     59  CD2 PHE A  70     -13.716   7.383  10.163  1.00  1.00     0.007 A 
ENDBRANCH  53  54
ENDBRANCH  52  53
END_RES PHE A  70
BEGIN_RES TYR A  73
REMARK  3 active torsions:
REMARK  status: ('A' for Active; 'I' for Inactive)
REMARK   20  A    between atoms: CA   and  CB  
REMARK   21  A    between atoms: CB   and  CG  
REMARK   22  A    between atoms: CZ   and  OH  
ROOT
ATOM     60  CA  TYR A  73     -13.212  10.166  17.260  1.00 12.17     0.180 C 
ENDROOT
BRANCH  60  61
ATOM     61  CB  TYR A  73     -13.301   8.846  16.517  1.00 12.84     0.073 C 
BRANCH  61  62
ATOM     62  CG  TYR A  73     -13.494   7.679  17.421  1.00 15.89    -0.056 A 
ATOM     63  CD1 TYR A  73     -14.151   6.548  16.992  1.00 16.00     0.010 A 
ATOM     64  CE1 TYR A  73     -14.360   5.466  17.847  1.00 13.55     0.037 A 
ATOM     65  CZ  TYR A  73     -13.899   5.532  19.147  1.00 18.13     0.065 A 
ATOM     66  CE2 TYR A  73     -13.239   6.649  19.600  1.00 15.89     0.037 A 
ATOM     67  CD2 TYR A  73     -13.039   7.718  18.734  1.00 21.86     0.010 A 
BRANCH  65  68
ATOM     68  OH  TYR A  73     -14.089   4.476  20.004  1.00 12.12    -0.361 OA
ATOM     69  H08 TYR A  73     -15.022   4.396  20.213  1.00 12.12     0.217 HD
ENDBRANCH  65  68
ENDBRANCH  61  62
ENDBRANCH  60  61
END_RES TYR A  73
BEGIN_RES PHE A  77
REMARK  2 active torsions:
REMARK  status: ('A' for Active; 'I' for Inactive)
REMARK   23  A    between atoms: CA   and  CB  
REMARK   24  A    between atoms: CB   and  CG  
ROOT
ATOM     70  CA  PHE A  77      -8.400  10.581  20.110  1.00 17.17     0.180 C 
ENDROOT
BRANCH  70  71
ATOM     71  CB  PHE A  77      -8.228   9.750  18.851  1.00 10.44     0.073 C 
BRANCH  71  72
ATOM     72  CG  PHE A  77      -7.058   8.818  18.899  1.00  6.07    -0.056 A 
ATOM     73  CD2 PHE A  77      -6.916   7.926  19.937  1.00  9.61     0.007 A 
ATOM     74  CE2 PHE A  77      -5.833   7.056  19.988  1.00  1.00     0.001 A 
ATOM     75  CZ  PHE A  77      -4.880   7.078  18.984  1.00  1.92     0.000 A 
ATOM     76  CE1 PHE A  77      -5.009   7.963  17.938  1.00  9.25     0.001 A 
ATOM     77  CD1 PHE A  77      -6.099   8.832  17.899  1.00  9.63     0.007 A 
ENDBRANCH  71  72
ENDBRANCH  70  71
END_RES PHE A  77
BEGIN_RES LEU A  96
REMARK  2 active torsions:
REMARK  status: ('A' for Active; 'I' for Inactive)
REMARK   25  A    between atoms: CA   and  CB  
REMARK   26  A    between atoms: CB   and  CG  
ROOT
ATOM     78  CA  LEU A  96       0.717   6.481  17.359  1.00 16.08     0.177 C 
ENDROOT
BRANCH  78  79
ATOM     79  CB  LEU A  96      -0.370   7.101  18.230  1.00 18.83     0.038 C 
BRANCH  79  80
ATOM     80  CG  LEU A  96      -0.161   6.917  19.733  1.00 19.03    -0.020 C 
ATOM     81  CD1 LEU A  96      -1.420   7.337  20.455  1.00 28.17     0.009 C 
ATOM     82  CD2 LEU A  96       0.113   5.466  20.053  1.00 22.01     0.009 C 
ENDBRANCH  79  80
ENDBRANCH  78  79
END_RES LEU A  96
BEGIN_RES VAL A  98
REMARK  1 active torsions:
REMARK  status: ('A' for Active; 'I' for Inactive)
REMARK   27  A    between atoms: CA   and  CB  
ROOT
ATOM     83  CA  VAL A  98      -3.928   2.082  14.897  1.00 19.83     0.180 C 
ENDROOT
BRANCH  83  84
ATOM     84  CB  VAL A  98      -5.203   2.807  15.281  1.00 17.87     0.009 C 
ATOM     85  CG2 VAL A  98      -4.928   4.278  15.460  1.00 29.90     0.012 C 
ATOM     86  CG1 VAL A  98      -5.764   2.207  16.553  1.00 14.79     0.012 C 
ENDBRANCH  83  84
END_RES VAL A  98
BEGIN_RES ASN A 112
REMARK  2 active torsions:
REMARK  status: ('A' for Active; 'I' for Inactive)
REMARK   28  A    between atoms: CA   and  CB  
REMARK   29  A    between atoms: CB   and  CG  
REMARK       I    between atoms: CG   and  ND2 
ROOT
ATOM     87  CA  ASN A 112     -11.790  -8.793  14.069  1.00 37.70     0.185 C 
ENDROOT
BRANCH  87  88
ATOM     88  CB  ASN A 112     -12.992  -7.945  14.465  1.00 26.24     0.137 C 
BRANCH  88  89
ATOM     89  CG  ASN A 112     -13.812  -8.561  15.576  1.00 21.77     0.217 C 
ATOM     90  ND2 ASN A 112     -14.958  -9.136  15.212  1.00  9.31    -0.370 N 
ATOM     91  H04 ASN A 112     -15.552  -9.564  15.908  1.00  9.31     0.159 HD
ATOM     92  H05 ASN A 112     -15.233  -9.143  14.240  1.00  9.31     0.159 HD
ATOM     93  OD1 ASN A 112     -13.426  -8.519  16.750  1.00 21.61    -0.274 OA
ENDBRANCH  88  89
ENDBRANCH  87  88
END_RES ASN A 112
BEGIN_RES PHE A 114
REMARK  2 active torsions:
REMARK  status: ('A' for Active; 'I' for Inactive)
REMARK   30  A    between atoms: CA   and  CB  
REMARK   31  A    between atoms: CB   and  CG  
ROOT
ATOM     94  CA  PHE A 114      -7.754  -3.619  17.012  1.00 26.06     0.180 C 
ENDROOT
BRANCH  94  95
ATOM     95  CB  PHE A 114      -8.890  -3.080  17.867  1.00 19.95     0.073 C 
BRANCH  95  96
ATOM     96  CG  PHE A 114      -9.160  -1.627  17.645  1.00 17.65    -0.056 A 
ATOM     97  CD1 PHE A 114     -10.465  -1.149  17.566  1.00 13.01     0.007 A 
ATOM     98  CE1 PHE A 114     -10.717   0.196  17.331  1.00  6.74     0.001 A 
ATOM     99  CZ  PHE A 114      -9.659   1.087  17.173  1.00  6.27     0.000 A 
ATOM    100  CE2 PHE A 114      -8.356   0.623  17.251  1.00 17.36     0.001 A 
ATOM    101  CD2 PHE A 114      -8.110  -0.734  17.487  1.00 18.39     0.007 A 
ENDBRANCH  95  96
ENDBRANCH  94  95
END_RES PHE A 114
BEGIN_RES VAL A 116
REMARK  1 active torsions:
REMARK  status: ('A' for Active; 'I' for Inactive)
REMARK   32  A    between atoms: CA   and  CB  
ROOT
ATOM    102  CA  VAL A 116      -2.467   0.283  18.565  1.00 13.48     0.180 C 
ENDROOT
BRANCH 102 103
ATOM    103  CB  VAL A 116      -3.101   1.238  19.599  1.00 20.86     0.009 C 
ATOM    104  CG1 VAL A 116      -3.004   2.679  19.092  1.00 25.01     0.012 C 
ATOM    105  CG2 VAL A 116      -4.531   0.846  19.889  1.00 25.34     0.012 C 
ENDBRANCH 102 103
END_RES VAL A 116
BEGIN_RES ILE A 123
REMARK  2 active torsions:
REMARK  status: ('A' for Active; 'I' for Inactive)
REMARK   33  A    between atoms: CA   and  CB  
REMARK   34  A    between atoms: CB   and  CG1 
ROOT
ATOM    106  CA  ILE A 123       1.557  -1.626  23.222  1.00 15.07     0.180 C 
ENDROOT
BRANCH 106 107
ATOM    107  CB  ILE A 123       1.697  -0.112  23.461  1.00 14.41     0.013 C 
ATOM    108  CG2 ILE A 123       3.094   0.205  23.966  1.00 18.35     0.012 C 
BRANCH 107 109
ATOM    109  CG1 ILE A 123       1.415   0.656  22.172  1.00 15.23     0.002 C 
ATOM    110  CD1 ILE A 123       0.222   1.577  22.265  1.00 14.67     0.005 C 
ENDBRANCH 107 109
ENDBRANCH 106 107
END_RES ILE A 123
BEGIN_RES LEU A 124
REMARK  2 active torsions:
REMARK  status: ('A' for Active; 'I' for Inactive)
REMARK   35  A    between atoms: CA   and  CB  
REMARK   36  A    between atoms: CB   and  CG  
ROOT
ATOM    111  CA  LEU A 124      -2.057  -2.686  23.524  1.00 11.86     0.177 C 
ENDROOT
BRANCH 111 112
ATOM    112  CB  LEU A 124      -2.698  -1.652  24.429  1.00 14.60     0.038 C 
BRANCH 112 113
ATOM    113  CG  LEU A 124      -2.630  -0.253  23.836  1.00 16.19    -0.020 C 
ATOM    114  CD1 LEU A 124      -4.052   0.198  23.450  1.00 22.07     0.009 C 
ATOM    115  CD2 LEU A 124      -1.993   0.685  24.831  1.00  9.12     0.009 C 
ENDBRANCH 112 113
ENDBRANCH 111 112
END_RES LEU A 124
BEGIN_RES PHE A 126
REMARK  2 active torsions:
REMARK  status: ('A' for Active; 'I' for Inactive)
REMARK   37  A    between atoms: CA   and  CB  
REMARK   38  A    between atoms: CB   and  CG  
ROOT
ATOM    116  CA  PHE A 126      -8.784  -4.792  22.233  1.00 23.15     0.180 C 
ENDROOT
BRANCH 116 117
ATOM    117  CB  PHE A 126      -9.823  -4.011  21.461  1.00 20.65     0.073 C 
BRANCH 117 118
ATOM    118  CG  PHE A 126     -10.954  -3.550  22.295  1.00 23.65    -0.056 A 
ATOM    119  CD2 PHE A 126     -12.208  -4.119  22.160  1.00 36.63     0.007 A 
ATOM    120  CE2 PHE A 126     -13.279  -3.682  22.952  1.00 36.27     0.001 A 
ATOM    121  CZ  PHE A 126     -13.085  -2.670  23.880  1.00 18.06     0.000 A 
ATOM    122  CE1 PHE A 126     -11.834  -2.102  24.019  1.00  5.50     0.001 A 
ATOM    123  CD1 PHE A 126     -10.774  -2.545  23.229  1.00 15.29     0.007 A 
ENDBRANCH 117 118
ENDBRANCH 116 117
END_RES PHE A 126
BEGIN_RES TRP A 131
REMARK  2 active torsions:
REMARK  status: ('A' for Active; 'I' for Inactive)
REMARK   39  A    between atoms: CA   and  CB  
REMARK   40  A    between atoms: CB   and  CG  
ROOT
ATOM    124  CA  TRP A 131      -8.096  -3.335  26.542  1.00 14.52     0.181 C 
ENDROOT
BRANCH 124 125
ATOM    125  CB  TRP A 131      -7.651  -1.877  26.607  1.00 13.06     0.075 C 
BRANCH 125 126
ATOM    126  CG  TRP A 131      -8.053  -1.051  25.405  1.00 16.97    -0.028 A 
ATOM    127  CD2 TRP A 131      -9.132  -0.115  25.337  1.00 11.34    -0.002 A 
ATOM    128  CE2 TRP A 131      -9.140   0.428  24.037  1.00  5.87     0.042 A 
ATOM    129  CE3 TRP A 131     -10.097   0.315  26.255  1.00  3.80     0.014 A 
ATOM    130  CZ2 TRP A 131     -10.073   1.383  23.632  1.00  1.35     0.030 A 
ATOM    131  NE1 TRP A 131      -8.113  -0.151  23.344  1.00 13.90    -0.365 N 
ATOM    132  CH2 TRP A 131     -11.007   1.788  24.553  1.00  1.00     0.002 A 
ATOM    133  CZ3 TRP A 131     -11.026   1.260  25.858  1.00  1.00     0.001 A 
ATOM    134  CD1 TRP A 131      -7.463  -1.038  24.171  1.00 17.22     0.096 A 
ATOM    135  H07 TRP A 131      -7.870   0.041  22.382  1.00 13.90     0.165 HD
ENDBRANCH 125 126
ENDBRANCH 124 125
END_RES TRP A 131
BEGIN_RES LEU A 148
REMARK  2 active torsions:
REMARK  status: ('A' for Active; 'I' for Inactive)
REMARK   41  A    between atoms: CA   and  CB  
REMARK   42  A    between atoms: CB   and  CG  
ROOT
ATOM    136  CA  LEU A 148      -9.018   3.259  29.295  1.00 16.99     0.177 C 
ENDROOT
BRANCH 136 137
ATOM    137  CB  LEU A 148      -8.166   2.574  28.236  1.00  6.39     0.038 C 
BRANCH 137 138
ATOM    138  CG  LEU A 148      -7.537   3.364  27.107  1.00  1.00    -0.020 C 
ATOM    139  CD2 LEU A 148      -8.599   4.042  26.291  1.00  1.00     0.009 C 
ATOM    140  CD1 LEU A 148      -6.733   2.407  26.246  1.00  2.71     0.009 C 
ENDBRANCH 137 138
ENDBRANCH 136 137
END_RES LEU A 148
BEGIN_RES THR A 154
REMARK  2 active torsions:
REMARK  status: ('A' for Active; 'I' for Inactive)
REMARK   43  A    between atoms: CA   and  CB  
REMARK   44  A    between atoms: CB   and  OG1 
ROOT
ATOM    141  CA  THR A 154     -15.990   3.959  24.426  1.00 20.45     0.205 C 
ENDROOT
BRANCH 141 142
ATOM    142  CB  THR A 154     -14.777   4.829  24.694  1.00 16.79     0.146 C 
ATOM    143  CG2 THR A 154     -13.682   4.525  23.689  1.00 20.24     0.042 C 
BRANCH 142 144
ATOM    144  OG1 THR A 154     -15.155   6.205  24.564  1.00 18.84    -0.393 OA
ATOM    145  H06 THR A 154     -14.400   6.765  24.760  1.00 18.84     0.210 HD
ENDBRANCH 142 144
ENDBRANCH 141 142
END_RES THR A 154
BEGIN_RES VAL A 158
REMARK  1 active torsions:
REMARK  status: ('A' for Active; 'I' for Inactive)
REMARK   45  A    between atoms: CA   and  CB  
ROOT
ATOM    146  CA  VAL A 158     -15.487  -0.189  19.892  1.00 15.49     0.180 C 
ENDROOT
BRANCH 146 147
ATOM    147  CB  VAL A 158     -14.291  -0.273  20.822  1.00  6.52     0.009 C 
ATOM    148  CG1 VAL A 158     -13.253  -1.229  20.281  1.00  1.00     0.012 C 
ATOM    149  CG2 VAL A 158     -13.713   1.099  20.985  1.00  5.99     0.012 C 
ENDBRANCH 146 147
END_RES VAL A 158
BEGIN_RES LEU A 161
REMARK  2 active torsions:
REMARK  status: ('A' for Active; 'I' for Inactive)
REMARK   46  A    between atoms: CA   and  CB  
REMARK   47  A    between atoms: CB   and  CG  
ROOT
ATOM    150  CA  LEU A 161     -18.031  -1.858  15.935  1.00 13.31     0.177 C 
ENDROOT
BRANCH 150 151
ATOM    151  CB  LEU A 161     -17.046  -0.706  16.001  1.00 14.13     0.038 C 
BRANCH 151 152
ATOM    152  CG  LEU A 161     -17.521   0.622  15.425  1.00 19.39    -0.020 C 
ATOM    153  CD2 LEU A 161     -17.046   1.766  16.288  1.00 27.75     0.009 C 
ATOM    154  CD1 LEU A 161     -19.025   0.614  15.360  1.00 18.59     0.009 C 
ENDBRANCH 151 152
ENDBRANCH 150 151
END_RES LEU A 161
BEGIN_RES GLN A 168
REMARK  3 active torsions:
REMARK  status: ('A' for Active; 'I' for Inactive)
REMARK   48  A    between atoms: CA   and  CB  
REMARK   49  A    between atoms: CB   and  CG  
REMARK   50  A    between atoms: CG   and  CD  
REMARK       I    between atoms: CD   and  NE2 
ROOT
ATOM    155  CA  GLN A 168     -22.035  -6.020   8.155  1.00 30.94     0.177 C 
ENDROOT
BRANCH 155 156
ATOM    156  CB  GLN A 168     -23.054  -5.218   8.946  1.00 41.76     0.044 C 
BRANCH 156 157
ATOM    157  CG  GLN A 168     -24.320  -5.964   9.270  1.00 61.20     0.105 C 
BRANCH 157 158
ATOM    158  CD  GLN A 168     -24.503  -6.144  10.765  1.00 75.49     0.215 C 
ATOM    159  NE2 GLN A 168     -23.677  -7.006  11.361  1.00 85.00    -0.370 N 
ATOM    160  H06 GLN A 168     -23.750  -7.172  12.354  1.00 85.00     0.159 HD
ATOM    161  H07 GLN A 168     -22.978  -7.494  10.817  1.00 85.00     0.159 HD
ATOM    162  OE1 GLN A 168     -25.380  -5.522  11.381  1.00 73.64    -0.274 OA
ENDBRANCH 157 158
ENDBRANCH 156 157
ENDBRANCH 155 156
END_RES GLN A 168
ENDMDL
