MODEL 1
REMARK VINA RESULT:      -4.9      0.000      0.000
REMARK  Name = human_CD1d_Tyloxapol_pred.rank_0
REMARK  175 active torsions:
REMARK  status: ('A' for Active; 'I' for Inactive)
REMARK    1  A    between atoms: C_1  and  C_3
REMARK    2  A    between atoms: C_3  and  O_4
REMARK    3  A    between atoms: O_4  and  C_5
REMARK    4  A    between atoms: C_5  and  C_7
REMARK    5  A    between atoms: O_6  and  C_7
REMARK    6  A    between atoms: O_6  and  C_9
REMARK    7  A    between atoms: O_8  and  C_11
REMARK    8  A    between atoms: O_8  and  C_13
REMARK    9  A    between atoms: C_9  and  C_11
REMARK   10  A    between atoms: O_10  and  C_15
REMARK   11  A    between atoms: O_10  and  C_17
REMARK   12  A    between atoms: O_12  and  C_19
REMARK   13  A    between atoms: O_12  and  C_21
REMARK   14  A    between atoms: C_13  and  C_15
REMARK   15  A    between atoms: O_14  and  C_23
REMARK   16  A    between atoms: O_14  and  C_25
REMARK   17  A    between atoms: O_16  and  C_27
REMARK   18  A    between atoms: O_16  and  C_29
REMARK   19  A    between atoms: C_17  and  C_19
REMARK   20  A    between atoms: O_18  and  C_37
REMARK   21  A    between atoms: O_18  and  C_39
REMARK   22  A    between atoms: O_20  and  C_41
REMARK   23  A    between atoms: O_20  and  C_43
REMARK   24  A    between atoms: C_21  and  C_23
REMARK   25  A    between atoms: O_22  and  C_49
REMARK   26  A    between atoms: O_22  and  C_51
REMARK   27  A    between atoms: O_24  and  C_53
REMARK   28  A    between atoms: O_24  and  C_55
REMARK   29  A    between atoms: C_25  and  C_27
REMARK   30  A    between atoms: O_26  and  C_57
REMARK   31  A    between atoms: O_26  and  C_59
REMARK   32  A    between atoms: O_28  and  C_61
REMARK   33  A    between atoms: O_28  and  C_63
REMARK   34  A    between atoms: C_29  and  C_31
REMARK   35  A    between atoms: O_30  and  C_65
REMARK   36  A    between atoms: O_30  and  C_67
REMARK   37  A    between atoms: C_31  and  C_33
REMARK   38  A    between atoms: O_32  and  C_69
REMARK   39  A    between atoms: O_32  and  C_71
REMARK   40  A    between atoms: C_33  and  C_35
REMARK   41  A    between atoms: O_34  and  C_73
REMARK   42  A    between atoms: O_34  and  C_75
REMARK   43  A    between atoms: C_35  and  C_37
REMARK   44  A    between atoms: O_36  and  C_77
REMARK   45  A    between atoms: O_36  and  C_79
REMARK   46  A    between atoms: O_38  and  C_81
REMARK   47  A    between atoms: O_38  and  C_83
REMARK   48  A    between atoms: C_39  and  C_41
REMARK   49  A    between atoms: O_40  and  C_85
REMARK   50  A    between atoms: O_40  and  C_87
REMARK   51  A    between atoms: C_43  and  C_45
REMARK   52  A    between atoms: C_43  and  C_163
REMARK   53  A    between atoms: O_44  and  C_116
REMARK   54  A    between atoms: O_44  and  C_117
REMARK   55  A    between atoms: C_45  and  C_47
REMARK   56  A    between atoms: C_45  and  C_150
REMARK   57  A    between atoms: O_46  and  C_118
REMARK   58  A    between atoms: O_46  and  C_119
REMARK   59  A    between atoms: O_48  and  C_120
REMARK   60  A    between atoms: O_48  and  C_121
REMARK   61  A    between atoms: O_50  and  C_122
REMARK   62  A    between atoms: O_50  and  C_123
REMARK   63  A    between atoms: C_51  and  C_53
REMARK   64  A    between atoms: O_52  and  C_124
REMARK   65  A    between atoms: O_52  and  C_125
REMARK   66  A    between atoms: O_54  and  C_126
REMARK   67  A    between atoms: O_54  and  C_127
REMARK   68  A    between atoms: C_55  and  C_57
REMARK   69  A    between atoms: O_56  and  C_128
REMARK   70  A    between atoms: O_56  and  C_129
REMARK   71  A    between atoms: O_58  and  C_130
REMARK   72  A    between atoms: O_58  and  C_131
REMARK   73  A    between atoms: C_59  and  C_61
REMARK   74  A    between atoms: O_60  and  C_132
REMARK   75  A    between atoms: O_60  and  C_133
REMARK   76  A    between atoms: O_62  and  C_134
REMARK   77  A    between atoms: O_62  and  C_135
REMARK   78  A    between atoms: C_63  and  C_65
REMARK   79  A    between atoms: O_66  and  C_180
REMARK   80  A    between atoms: O_66  and  C_181
REMARK   81  A    between atoms: C_67  and  C_69
REMARK   82  A    between atoms: O_68  and  C_182
REMARK   83  A    between atoms: O_68  and  C_183
REMARK   84  A    between atoms: O_70  and  C_184
REMARK   85  A    between atoms: O_70  and  C_185
REMARK   86  A    between atoms: C_71  and  C_73
REMARK   87  A    between atoms: O_72  and  C_186
REMARK   88  A    between atoms: O_72  and  C_187
REMARK   89  A    between atoms: O_74  and  C_188
REMARK   90  A    between atoms: O_74  and  C_189
REMARK   91  A    between atoms: C_75  and  C_77
REMARK   92  A    between atoms: O_76  and  C_190
REMARK   93  A    between atoms: O_76  and  C_191
REMARK   94  A    between atoms: O_78  and  C_192
REMARK   95  A    between atoms: O_78  and  C_193
REMARK   96  A    between atoms: C_79  and  C_81
REMARK   97  A    between atoms: O_80  and  C_194
REMARK   98  A    between atoms: O_80  and  C_195
REMARK   99  A    between atoms: O_82  and  C_196
REMARK  100  A    between atoms: O_82  and  C_197
REMARK  101  A    between atoms: C_83  and  C_85
REMARK  102  A    between atoms: O_84  and  C_198
REMARK  103  A    between atoms: O_84  and  C_199
REMARK  104  A    between atoms: C_87  and  C_89
REMARK  105  A    between atoms: O_88  and  C_215
REMARK  106  A    between atoms: O_88  and  C_216
REMARK  107  A    between atoms: O_90  and  C_217
REMARK  108  A    between atoms: O_90  and  C_218
REMARK  109  A    between atoms: O_92  and  C_219
REMARK  110  A    between atoms: O_92  and  C_220
REMARK  111  A    between atoms: O_94  and  C_221
REMARK  112  A    between atoms: O_94  and  C_222
REMARK  113  A    between atoms: O_96  and  C_223
REMARK  114  A    between atoms: O_96  and  C_224
REMARK  115  A    between atoms: C_97  and  C_99
REMARK  116  A    between atoms: O_98  and  C_225
REMARK  117  A    between atoms: O_98  and  C_226
REMARK  118  A    between atoms: C_99  and  C_105
REMARK  119  A    between atoms: O_100  and  C_227
REMARK  120  A    between atoms: O_100  and  C_228
REMARK  121  A    between atoms: O_102  and  C_229
REMARK  122  A    between atoms: O_102  and  C_230
REMARK  123  A    between atoms: O_104  and  C_231
REMARK  124  A    between atoms: O_104  and  C_232
REMARK  125  A    between atoms: C_105  and  C_107
REMARK  126  A    between atoms: O_106  and  C_233
REMARK  127  A    between atoms: O_106  and  C_234
REMARK  128  A    between atoms: C_117  and  C_118
REMARK  129  A    between atoms: C_119  and  C_120
REMARK  130  A    between atoms: C_121  and  C_122
REMARK  131  A    between atoms: C_123  and  C_124
REMARK  132  A    between atoms: C_125  and  C_126
REMARK  133  A    between atoms: C_127  and  C_128
REMARK  134  A    between atoms: C_129  and  C_130
REMARK  135  A    between atoms: C_131  and  C_132
REMARK  136  A    between atoms: C_133  and  C_134
REMARK  137  A    between atoms: C_135  and  C_136
REMARK  138  A    between atoms: C_138  and  C_139
REMARK  139  A    between atoms: C_139  and  C_142
REMARK  140  A    between atoms: C_142  and  C_145
REMARK  141  A    between atoms: C_150  and  C_151
REMARK  142  A    between atoms: C_151  and  C_152
REMARK  143  A    between atoms: C_152  and  C_155
REMARK  144  A    between atoms: C_155  and  C_158
REMARK  145  A    between atoms: C_163  and  C_164
REMARK  146  A    between atoms: C_166  and  C_167
REMARK  147  A    between atoms: C_167  and  C_168
REMARK  148  A    between atoms: C_168  and  C_171
REMARK  149  A    between atoms: C_178  and  C_179
REMARK  150  A    between atoms: C_179  and  C_180
REMARK  151  A    between atoms: C_179  and  C_214
REMARK  152  A    between atoms: C_181  and  C_182
REMARK  153  A    between atoms: C_183  and  C_184
REMARK  154  A    between atoms: C_185  and  C_186
REMARK  155  A    between atoms: C_187  and  C_188
REMARK  156  A    between atoms: C_189  and  C_190
REMARK  157  A    between atoms: C_191  and  C_192
REMARK  158  A    between atoms: C_193  and  C_194
REMARK  159  A    between atoms: C_195  and  C_196
REMARK  160  A    between atoms: C_197  and  C_198
REMARK  161  A    between atoms: C_199  and  C_200
REMARK  162  A    between atoms: C_203  and  C_204
REMARK  163  A    between atoms: C_203  and  C_214
REMARK  164  A    between atoms: C_204  and  C_207
REMARK  165  A    between atoms: C_207  and  C_210
REMARK  166  A    between atoms: C_216  and  C_217
REMARK  167  A    between atoms: C_218  and  C_219
REMARK  168  A    between atoms: C_220  and  C_221
REMARK  169  A    between atoms: C_222  and  C_223
REMARK  170  A    between atoms: C_224  and  C_225
REMARK  171  A    between atoms: C_226  and  C_227
REMARK  172  A    between atoms: C_228  and  C_229
REMARK  173  A    between atoms: C_230  and  C_231
REMARK  174  A    between atoms: C_232  and  C_233
REMARK  175  A    between atoms: C_234  and  C_235
REMARK                            x       y       z     vdW  Elec       q    Type
REMARK                         _______ _______ _______ _____ _____    ______ ____
ROOT
ATOM      1  C   UNL     1     -14.453  10.684  24.032  0.00  0.00    +0.000 C 
ENDROOT
BRANCH   1   2
ATOM      2  C   UNL     1     -12.670   9.894  24.180  0.00  0.00    +0.000 C 
BRANCH   2   3
ATOM      3  C   UNL     1     -12.526   8.372  24.508  0.00  0.00    +0.000 C 
ATOM      4  C   UNL     1     -12.278   8.107  26.123  0.00  0.00    +0.000 C 
ATOM      5  C   UNL     1     -10.799   7.968  26.458  0.00  0.00    +0.000 C 
ATOM      6  C   UNL     1     -10.239   6.498  25.698  0.00  0.00    +0.000 C 
ATOM      7  C   UNL     1      -9.914   6.485  24.260  0.00  0.00    +0.000 C 
ATOM      8  C   UNL     1     -11.216   7.284  23.377  0.00  0.00    +0.000 C 
BRANCH   5   9
ATOM      9  C   UNL     1     -10.538   7.995  28.062  0.00  0.00    +0.000 C 
ATOM     10  C   UNL     1     -11.251   8.844  28.564  0.00  0.00    +0.000 C 
ATOM     11  C   UNL     1     -10.678   6.489  28.553  0.00  0.00    +0.000 C 
BRANCH   9  12
ATOM     12  C   UNL     1      -8.975   8.329  28.448  0.00  0.00    +0.000 C 
ATOM     13  C   UNL     1      -8.034   8.038  27.251  0.00  0.00    +0.000 C 
ATOM     14  C   UNL     1      -8.340   7.132  29.485  0.00  0.00    +0.000 C 
BRANCH  12  15
ATOM     15  C   UNL     1      -8.621   9.556  29.227  0.00  0.00    +0.000 C 
ATOM     16  C   UNL     1      -9.342   9.204  30.521  0.00  0.00    +0.000 C 
ATOM     17  C   UNL     1      -9.198  10.836  28.772  0.00  0.00    +0.000 C 
ATOM     18  C   UNL     1      -7.172   9.741  29.392  0.00  0.00    +0.000 C 
ENDBRANCH  12  15
ENDBRANCH   9  12
ENDBRANCH   5   9
BRANCH   7  19
ATOM     19  C   UNL     1      -9.058   5.254  23.740  0.00  0.00    +0.000 C 
BRANCH  19  20
ATOM     20  C   UNL     1      -9.927   4.111  23.102  0.00  0.00    +0.000 C 
ATOM     21  C   UNL     1     -11.207   3.770  23.964  0.00  0.00    +0.000 C 
BRANCH  20  22
ATOM     22  O   UNL     1     -10.495   4.596  21.830  0.00  0.00    +0.000 OA
BRANCH  22  23
ATOM     23  C   UNL     1     -11.223   3.649  21.098  0.00  0.00    +0.000 C 
BRANCH  23  24
ATOM     24  C   UNL     1     -11.804   4.283  19.842  0.00  0.00    +0.000 C 
BRANCH  24  25
ATOM     25  O   UNL     1     -12.999   4.916  20.165  0.00  0.00    +0.000 OA
BRANCH  25  26
ATOM     26  C   UNL     1     -14.105   4.428  19.421  0.00  0.00    +0.000 C 
BRANCH  26  27
ATOM     27  C   UNL     1     -14.666   5.480  18.565  0.00  0.00    +0.000 C 
BRANCH  27  28
ATOM     28  O   UNL     1     -14.272   5.266  17.260  0.00  0.00    +0.000 OA
BRANCH  28  29
ATOM     29  C   UNL     1     -14.004   3.916  16.939  0.00  0.00    +0.000 C 
BRANCH  29  30
ATOM     30  C   UNL     1     -12.855   3.862  15.961  0.00  0.00    +0.000 C 
BRANCH  30  31
ATOM     31  O   UNL     1     -12.653   2.528  15.610  0.00  0.00    +0.000 OA
BRANCH  31  32
ATOM     32  C   UNL     1     -11.514   2.385  14.742  0.00  0.00    +0.000 C 
BRANCH  32  33
ATOM     33  C   UNL     1     -10.832   3.758  14.635  0.00  0.00    +0.000 C 
BRANCH  33  34
ATOM     34  O   UNL     1      -9.480   3.599  14.923  0.00  0.00    +0.000 OA
BRANCH  34  35
ATOM     35  C   UNL     1      -8.624   3.612  13.763  0.00  0.00    +0.000 C 
BRANCH  35  36
ATOM     36  C   UNL     1      -9.078   4.607  12.737  0.00  0.00    +0.000 C 
BRANCH  36  37
ATOM     37  O   UNL     1      -8.537   4.165  11.457  0.00  0.00    +0.000 OA
BRANCH  37  38
ATOM     38  C   UNL     1      -8.965   5.014  10.421  0.00  0.00    +0.000 C 
BRANCH  38  39
ATOM     39  C   UNL     1      -9.535   4.299   9.263  0.00  0.00    +0.000 C 
BRANCH  39  40
ATOM     40  O   UNL     1      -9.321   5.157   8.045  0.00  0.00    +0.000 OA
BRANCH  40  41
ATOM     41  C   UNL     1     -10.505   5.798   7.631  0.00  0.00    +0.000 C 
BRANCH  41  42
ATOM     42  C   UNL     1     -10.894   5.391   6.254  0.00  0.00    +0.000 C 
BRANCH  42  43
ATOM     43  O   UNL     1     -11.658   4.251   6.272  0.00  0.00    +0.000 OA
BRANCH  43  44
ATOM     44  C   UNL     1     -12.851   4.316   7.000  0.00  0.00    +0.000 C 
BRANCH  44  45
ATOM     45  C   UNL     1     -13.974   3.641   6.296  0.00  0.00    +0.000 C 
BRANCH  45  46
ATOM     46  O   UNL     1     -14.087   2.319   6.832  0.00  0.00    +0.000 OA
BRANCH  46  47
ATOM     47  C   UNL     1     -14.098   2.386   8.248  0.00  0.00    +0.000 C 
BRANCH  47  48
ATOM     48  C   UNL     1     -15.261   1.445   8.774  0.00  0.00    +0.000 C 
BRANCH  48  49
ATOM     49  O   UNL     1     -14.781   0.154   8.913  0.00  0.00    +0.000 OA
BRANCH  49  50
ATOM     50  C   UNL     1     -15.652  -0.757   9.494  0.00  0.00    +0.000 C 
BRANCH  50  52
ATOM     51  O   UNL     1     -16.967  -0.658  11.481  0.00  0.00    +0.000 OA
ATOM     52  C   UNL     1     -15.599  -0.616  11.028  0.00  0.00    +0.000 C 
ENDBRANCH  50  52
ENDBRANCH  49  50
ENDBRANCH  48  49
ENDBRANCH  47  48
ENDBRANCH  46  47
ENDBRANCH  45  46
ENDBRANCH  44  45
ENDBRANCH  43  44
ENDBRANCH  42  43
ENDBRANCH  41  42
ENDBRANCH  40  41
ENDBRANCH  39  40
ENDBRANCH  38  39
ENDBRANCH  37  38
ENDBRANCH  36  37
ENDBRANCH  35  36
ENDBRANCH  34  35
ENDBRANCH  33  34
ENDBRANCH  32  33
ENDBRANCH  31  32
ENDBRANCH  30  31
ENDBRANCH  29  30
ENDBRANCH  28  29
ENDBRANCH  27  28
ENDBRANCH  26  27
ENDBRANCH  25  26
ENDBRANCH  24  25
ENDBRANCH  23  24
ENDBRANCH  22  23
ENDBRANCH  20  22
ENDBRANCH  19  20
BRANCH  19  53
ATOM     53  C   UNL     1      -7.913   5.559  22.639  0.00  0.00    +0.000 C 
BRANCH  53  55
ATOM     54  C   UNL     1      -6.971   4.298  20.864  0.00  0.00    +0.000 C 
ATOM     55  C   UNL     1      -6.847   4.854  22.236  0.00  0.00    +0.000 C 
BRANCH  55  56
ATOM     56  C   UNL     1      -5.589   4.604  23.064  0.00  0.00    +0.000 C 
ATOM     57  C   UNL     1      -5.999   5.043  24.429  0.00  0.00    +0.000 C 
ATOM     58  C   UNL     1      -5.323   3.127  23.123  0.00  0.00    +0.000 C 
BRANCH  56  59
ATOM     59  C   UNL     1      -4.366   5.392  22.504  0.00  0.00    +0.000 C 
ATOM     60  C   UNL     1      -4.691   6.804  22.209  0.00  0.00    +0.000 C 
ATOM     61  C   UNL     1      -3.920   4.686  21.202  0.00  0.00    +0.000 C 
BRANCH  59  62
ATOM     62  C   UNL     1      -3.090   5.386  23.465  0.00  0.00    +0.000 C 
ATOM     63  C   UNL     1      -2.611   6.770  23.722  0.00  0.00    +0.000 C 
ATOM     64  C   UNL     1      -1.946   4.677  22.781  0.00  0.00    +0.000 C 
ATOM     65  C   UNL     1      -3.290   4.669  24.711  0.00  0.00    +0.000 C 
ENDBRANCH  59  62
ENDBRANCH  56  59
ENDBRANCH  55  56
ENDBRANCH  53  55
ENDBRANCH  19  53
ENDBRANCH   7  19
BRANCH   8  66
ATOM     66  O   UNL     1     -11.438   7.252  22.031  0.00  0.00    +0.000 OA
BRANCH  66  67
ATOM     67  C   UNL     1     -11.628   8.502  21.409  0.00  0.00    +0.000 C 
BRANCH  67  68
ATOM     68  C   UNL     1     -12.994   8.753  20.733  0.00  0.00    +0.000 C 
BRANCH  68  69
ATOM     69  O   UNL     1     -13.923   7.834  21.238  0.00  0.00    +0.000 OA
BRANCH  69  70
ATOM     70  C   UNL     1     -15.297   8.136  20.828  0.00  0.00    +0.000 C 
BRANCH  70  71
ATOM     71  C   UNL     1     -15.410   9.561  20.315  0.00  0.00    +0.000 C 
BRANCH  71  72
ATOM     72  O   UNL     1     -16.158   9.548  18.968  0.00  0.00    +0.000 OA
BRANCH  72  73
ATOM     73  C   UNL     1     -17.219   8.602  18.986  0.00  0.00    +0.000 C 
BRANCH  73  74
ATOM     74  C   UNL     1     -18.456   9.232  18.333  0.00  0.00    +0.000 C 
BRANCH  74  75
ATOM     75  O   UNL     1     -19.507   8.321  18.267  0.00  0.00    +0.000 OA
BRANCH  75  76
ATOM     76  C   UNL     1     -20.762   8.927  17.933  0.00  0.00    +0.000 C 
BRANCH  76  77
ATOM     77  C   UNL     1     -21.926   8.039  18.286  0.00  0.00    +0.000 C 
BRANCH  77  78
ATOM     78  O   UNL     1     -23.038   8.918  18.383  0.00  0.00    +0.000 OA
BRANCH  78  79
ATOM     79  C   UNL     1     -24.325   8.259  18.133  0.00  0.00    +0.000 C 
BRANCH  79  80
ATOM     80  C   UNL     1     -24.192   7.548  16.841  0.00  0.00    +0.000 C 
BRANCH  80  81
ATOM     81  O   UNL     1     -24.543   6.142  16.941  0.00  0.00    +0.000 OA
BRANCH  81  82
ATOM     82  C   UNL     1     -24.932   5.750  18.219  0.00  0.00    +0.000 C 
BRANCH  82  83
ATOM     83  C   UNL     1     -24.077   4.562  18.702  0.00  0.00    +0.000 C 
BRANCH  83  84
ATOM     84  O   UNL     1     -22.953   4.395  17.871  0.00  0.00    +0.000 OA
BRANCH  84  85
ATOM     85  C   UNL     1     -22.656   3.155  17.463  0.00  0.00    +0.000 C 
BRANCH  85  86
ATOM     86  C   UNL     1     -23.196   2.907  16.039  0.00  0.00    +0.000 C 
BRANCH  86  87
ATOM     87  O   UNL     1     -22.198   2.517  15.131  0.00  0.00    +0.000 OA
BRANCH  87  88
ATOM     88  C   UNL     1     -22.678   2.080  13.909  0.00  0.00    +0.000 C 
BRANCH  88  89
ATOM     89  C   UNL     1     -23.934   2.836  13.507  0.00  0.00    +0.000 C 
BRANCH  89  90
ATOM     90  O   UNL     1     -23.812   3.273  12.157  0.00  0.00    +0.000 OA
BRANCH  90  91
ATOM     91  C   UNL     1     -25.119   3.265  11.546  0.00  0.00    +0.000 C 
BRANCH  91  92
ATOM     92  C   UNL     1     -25.599   1.836  11.512  0.00  0.00    +0.000 C 
BRANCH  92  93
ATOM     93  O   UNL     1     -24.929   1.161  10.451  0.00  0.00    +0.000 OA
BRANCH  93  94
ATOM     94  C   UNL     1     -24.773  -0.188  10.670  0.00  0.00    +0.000 C 
BRANCH  94  96
ATOM     95  O   UNL     1     -27.057  -0.815  10.263  0.00  0.00    +0.000 OA
ATOM     96  C   UNL     1     -26.056  -0.795  11.247  0.00  0.00    +0.000 C 
ENDBRANCH  94  96
ENDBRANCH  93  94
ENDBRANCH  92  93
ENDBRANCH  91  92
ENDBRANCH  90  91
ENDBRANCH  89  90
ENDBRANCH  88  89
ENDBRANCH  87  88
ENDBRANCH  86  87
ENDBRANCH  85  86
ENDBRANCH  84  85
ENDBRANCH  83  84
ENDBRANCH  82  83
ENDBRANCH  81  82
ENDBRANCH  80  81
ENDBRANCH  79  80
ENDBRANCH  78  79
ENDBRANCH  77  78
ENDBRANCH  76  77
ENDBRANCH  75  76
ENDBRANCH  74  75
ENDBRANCH  73  74
ENDBRANCH  72  73
ENDBRANCH  71  72
ENDBRANCH  70  71
ENDBRANCH  69  70
ENDBRANCH  68  69
ENDBRANCH  67  68
ENDBRANCH  66  67
ENDBRANCH   8  66
ENDBRANCH   2   3
ENDBRANCH   1   2
BRANCH   1  97
ATOM     97  C   UNL     1     -14.879  12.065  24.493  0.00  0.00    +0.000 C 
BRANCH  97  98
ATOM     98  C   UNL     1     -16.465  12.315  24.297  0.00  0.00    +0.000 C 
ATOM     99  C   UNL     1     -17.233  12.338  25.653  0.00  0.00    +0.000 C 
ATOM    100  C   UNL     1     -18.806  12.574  25.580  0.00  0.00    +0.000 C 
ATOM    101  C   UNL     1     -20.160  12.712  26.123  0.00  0.00    +0.000 C 
ATOM    102  C   UNL     1     -21.435  12.199  25.497  0.00  0.00    +0.000 C 
ATOM    103  C   UNL     1     -22.717  12.347  26.153  0.00  0.00    +0.000 C 
ATOM    104  C   UNL     1     -22.700  12.945  27.461  0.00  0.00    +0.000 C 
ATOM    105  C   UNL     1     -21.572  13.507  28.046  0.00  0.00    +0.000 C 
ATOM    106  C   UNL     1     -20.431  13.364  27.315  0.00  0.00    +0.000 C 
ATOM    107  C   UNL     1     -19.064  12.362  24.809  0.00  0.00    +0.000 C 
ATOM    108  C   UNL     1     -18.669  12.454  23.520  0.00  0.00    +0.000 C 
ATOM    109  C   UNL     1     -17.211  12.795  23.179  0.00  0.00    +0.000 C 
BRANCH 103 110
ATOM    110  C   UNL     1     -23.984  11.906  25.426  0.00  0.00    +0.000 C 
ATOM    111  C   UNL     1     -24.437  13.180  24.657  0.00  0.00    +0.000 C 
ATOM    112  C   UNL     1     -23.638  10.941  24.388  0.00  0.00    +0.000 C 
BRANCH 110 113
ATOM    113  C   UNL     1     -25.208  11.366  26.200  0.00  0.00    +0.000 C 
ATOM    114  C   UNL     1     -25.658  12.473  27.101  0.00  0.00    +0.000 C 
ATOM    115  C   UNL     1     -26.309  10.999  25.200  0.00  0.00    +0.000 C 
BRANCH 113 116
ATOM    116  C   UNL     1     -24.943  10.037  27.040  0.00  0.00    +0.000 C 
ATOM    117  C   UNL     1     -24.106   9.052  26.249  0.00  0.00    +0.000 C 
ATOM    118  C   UNL     1     -26.217   9.312  27.287  0.00  0.00    +0.000 C 
ATOM    119  C   UNL     1     -24.306  10.354  28.364  0.00  0.00    +0.000 C 
ENDBRANCH 113 116
ENDBRANCH 110 113
ENDBRANCH 103 110
BRANCH 108 120
ATOM    120  C   UNL     1     -19.502  11.652  22.453  0.00  0.00    +0.000 C 
ATOM    121  C   UNL     1     -20.405  10.686  23.238  0.00  0.00    +0.000 C 
ATOM    122  C   UNL     1     -18.545  10.785  21.719  0.00  0.00    +0.000 C 
BRANCH 120 123
ATOM    123  C   UNL     1     -20.552  12.484  21.527  0.00  0.00    +0.000 C 
ATOM    124  C   UNL     1     -20.397  12.233  20.093  0.00  0.00    +0.000 C 
ATOM    125  C   UNL     1     -21.973  12.088  21.846  0.00  0.00    +0.000 C 
BRANCH 123 126
ATOM    126  C   UNL     1     -20.425  14.043  21.640  0.00  0.00    +0.000 C 
ATOM    127  C   UNL     1     -21.185  14.654  20.515  0.00  0.00    +0.000 C 
ATOM    128  C   UNL     1     -18.999  14.482  21.451  0.00  0.00    +0.000 C 
ATOM    129  C   UNL     1     -20.843  14.507  22.984  0.00  0.00    +0.000 C 
ENDBRANCH 123 126
ENDBRANCH 120 123
ENDBRANCH 108 120
BRANCH 106 130
ATOM    130  O   UNL     1     -19.319  14.071  27.708  0.00  0.00    +0.000 OA
BRANCH 130 131
ATOM    131  C   UNL     1     -19.418  14.994  28.819  0.00  0.00    +0.000 C 
BRANCH 131 132
ATOM    132  C   UNL     1     -18.018  15.506  29.102  0.00  0.00    +0.000 C 
BRANCH 132 133
ATOM    133  O   UNL     1     -17.619  16.380  28.104  0.00  0.00    +0.000 OA
BRANCH 133 134
ATOM    134  C   UNL     1     -17.774  17.745  28.459  0.00  0.00    +0.000 C 
BRANCH 134 135
ATOM    135  C   UNL     1     -18.504  18.464  27.378  0.00  0.00    +0.000 C 
BRANCH 135 136
ATOM    136  O   UNL     1     -18.392  17.796  26.453  0.00  0.00    +0.000 OA
BRANCH 136 137
ATOM    137  C   UNL     1     -19.442  17.925  25.560  0.00  0.00    +0.000 C 
BRANCH 137 138
ATOM    138  C   UNL     1     -19.047  17.585  24.083  0.00  0.00    +0.000 C 
BRANCH 138 139
ATOM    139  O   UNL     1     -18.034  16.689  24.130  0.00  0.00    +0.000 OA
BRANCH 139 140
ATOM    140  C   UNL     1     -16.982  16.987  23.187  0.00  0.00    +0.000 C 
BRANCH 140 141
ATOM    141  C   UNL     1     -17.464  18.028  22.227  0.00  0.00    +0.000 C 
BRANCH 141 142
ATOM    142  O   UNL     1     -16.589  18.101  21.123  0.00  0.00    +0.000 OA
BRANCH 142 143
ATOM    143  C   UNL     1     -17.076  17.418  19.970  0.00  0.00    +0.000 C 
BRANCH 143 144
ATOM    144  C   UNL     1     -15.945  16.545  19.363  0.00  0.00    +0.000 C 
BRANCH 144 145
ATOM    145  O   UNL     1     -15.496  17.062  18.100  0.00  0.00    +0.000 OA
BRANCH 145 146
ATOM    146  C   UNL     1     -16.468  17.331  17.079  0.00  0.00    +0.000 C 
BRANCH 146 147
ATOM    147  C   UNL     1     -16.102  16.704  15.758  0.00  0.00    +0.000 C 
BRANCH 147 148
ATOM    148  O   UNL     1     -15.798  17.767  14.835  0.00  0.00    +0.000 OA
BRANCH 148 149
ATOM    149  C   UNL     1     -14.895  17.426  13.795  0.00  0.00    +0.000 C 
BRANCH 149 150
ATOM    150  C   UNL     1     -13.605  18.201  13.964  0.00  0.00    +0.000 C 
BRANCH 150 151
ATOM    151  O   UNL     1     -12.702  17.410  14.747  0.00  0.00    +0.000 OA
BRANCH 151 152
ATOM    152  C   UNL     1     -11.748  16.691  14.046  0.00  0.00    +0.000 C 
BRANCH 152 153
ATOM    153  C   UNL     1     -10.590  17.572  13.616  0.00  0.00    +0.000 C 
BRANCH 153 154
ATOM    154  O   UNL     1      -9.360  16.907  13.899  0.00  0.00    +0.000 OA
BRANCH 154 155
ATOM    155  C   UNL     1      -9.143  16.655  15.258  0.00  0.00    +0.000 C 
BRANCH 155 156
ATOM    156  C   UNL     1      -7.700  16.137  15.484  0.00  0.00    +0.000 C 
BRANCH 156 157
ATOM    157  O   UNL     1      -7.000  17.142  16.224  0.00  0.00    +0.000 OA
BRANCH 157 158
ATOM    158  C   UNL     1      -7.755  18.310  16.410  0.00  0.00    +0.000 C 
BRANCH 158 160
ATOM    159  O   UNL     1      -5.991  18.160  18.137  0.00  0.00    +0.000 OA
ATOM    160  C   UNL     1      -7.090  19.021  17.505  0.00  0.00    +0.000 C 
ENDBRANCH 158 160
ENDBRANCH 157 158
ENDBRANCH 156 157
ENDBRANCH 155 156
ENDBRANCH 154 155
ENDBRANCH 153 154
ENDBRANCH 152 153
ENDBRANCH 151 152
ENDBRANCH 150 151
ENDBRANCH 149 150
ENDBRANCH 148 149
ENDBRANCH 147 148
ENDBRANCH 146 147
ENDBRANCH 145 146
ENDBRANCH 144 145
ENDBRANCH 143 144
ENDBRANCH 142 143
ENDBRANCH 141 142
ENDBRANCH 140 141
ENDBRANCH 139 140
ENDBRANCH 138 139
ENDBRANCH 137 138
ENDBRANCH 136 137
ENDBRANCH 135 136
ENDBRANCH 134 135
ENDBRANCH 133 134
ENDBRANCH 132 133
ENDBRANCH 131 132
ENDBRANCH 130 131
ENDBRANCH 106 130
BRANCH  99 161
ATOM    161  O   UNL     1     -16.865  11.485  26.664  0.00  0.00    +0.000 OA
BRANCH 161 162
ATOM    162  C   UNL     1     -17.183  11.817  28.020  0.00  0.00    +0.000 C 
BRANCH 162 163
ATOM    163  C   UNL     1     -16.547  10.934  29.081  0.00  0.00    +0.000 C 
BRANCH 163 164
ATOM    164  O   UNL     1     -15.537  10.149  28.522  0.00  0.00    +0.000 OA
BRANCH 164 165
ATOM    165  C   UNL     1     -14.762   9.424  29.438  0.00  0.00    +0.000 C 
BRANCH 165 166
ATOM    166  C   UNL     1     -15.595   8.491  30.322  0.00  0.00    +0.000 C 
BRANCH 166 167
ATOM    167  O   UNL     1     -14.704   7.731  31.177  0.00  0.00    +0.000 OA
BRANCH 167 168
ATOM    168  C   UNL     1     -15.410   7.162  32.260  0.00  0.00    +0.000 C 
BRANCH 168 169
ATOM    169  C   UNL     1     -16.859   7.628  32.268  0.00  0.00    +0.000 C 
BRANCH 169 170
ATOM    170  O   UNL     1     -17.190   8.152  33.516  0.00  0.00    +0.000 OA
BRANCH 170 171
ATOM    171  C   UNL     1     -17.995   9.313  33.446  0.00  0.00    +0.000 C 
BRANCH 171 172
ATOM    172  C   UNL     1     -18.762   9.398  32.088  0.00  0.00    +0.000 C 
BRANCH 172 173
ATOM    173  O   UNL     1     -20.144   9.265  32.375  0.00  0.00    +0.000 OA
BRANCH 173 174
ATOM    174  C   UNL     1     -20.861  10.466  31.952  0.00  0.00    +0.000 C 
BRANCH 174 175
ATOM    175  C   UNL     1     -22.310  10.106  31.631  0.00  0.00    +0.000 C 
BRANCH 175 176
ATOM    176  O   UNL     1     -22.472   8.742  31.845  0.00  0.00    +0.000 OA
BRANCH 176 177
ATOM    177  C   UNL     1     -23.723   8.265  31.375  0.00  0.00    +0.000 C 
BRANCH 177 178
ATOM    178  C   UNL     1     -23.873   6.840  31.891  0.00  0.00    +0.000 C 
BRANCH 178 179
ATOM    179  O   UNL     1     -24.403   6.017  30.867  0.00  0.00    +0.000 OA
BRANCH 179 180
ATOM    180  C   UNL     1     -24.975   6.777  29.770  0.00  0.00    +0.000 C 
BRANCH 180 181
ATOM    181  C   UNL     1     -24.941   5.942  28.489  0.00  0.00    +0.000 C 
BRANCH 181 182
ATOM    182  O   UNL     1     -24.991   4.576  28.794  0.00  0.00    +0.000 OA
BRANCH 182 183
ATOM    183  C   UNL     1     -24.418   3.741  27.728  0.00  0.00    +0.000 C 
BRANCH 183 184
ATOM    184  C   UNL     1     -25.452   3.220  26.730  0.00  0.00    +0.000 C 
BRANCH 184 185
ATOM    185  O   UNL     1     -24.795   2.297  25.923  0.00  0.00    +0.000 OA
BRANCH 185 186
ATOM    186  C   UNL     1     -25.416   2.145  24.635  0.00  0.00    +0.000 C 
BRANCH 186 187
ATOM    187  C   UNL     1     -24.610   1.207  23.764  0.00  0.00    +0.000 C 
BRANCH 187 188
ATOM    188  O   UNL     1     -23.814   2.082  22.860  0.00  0.00    +0.000 OA
BRANCH 188 189
ATOM    189  C   UNL     1     -22.659   1.366  22.374  0.00  0.00    +0.000 C 
BRANCH 189 191
ATOM    190  O   UNL     1     -22.194   0.994  20.083  0.00  0.00    +0.000 OA
ATOM    191  C   UNL     1     -22.280   1.987  21.049  0.00  0.00    +0.000 C 
ENDBRANCH 189 191
ENDBRANCH 188 189
ENDBRANCH 187 188
ENDBRANCH 186 187
ENDBRANCH 185 186
ENDBRANCH 184 185
ENDBRANCH 183 184
ENDBRANCH 182 183
ENDBRANCH 181 182
ENDBRANCH 180 181
ENDBRANCH 179 180
ENDBRANCH 178 179
ENDBRANCH 177 178
ENDBRANCH 176 177
ENDBRANCH 175 176
ENDBRANCH 174 175
ENDBRANCH 173 174
ENDBRANCH 172 173
ENDBRANCH 171 172
ENDBRANCH 170 171
ENDBRANCH 169 170
ENDBRANCH 168 169
ENDBRANCH 167 168
ENDBRANCH 166 167
ENDBRANCH 165 166
ENDBRANCH 164 165
ENDBRANCH 163 164
ENDBRANCH 162 163
ENDBRANCH 161 162
ENDBRANCH  99 161
ENDBRANCH  97  98
BRANCH  97 192
ATOM    192  C   UNL     1     -13.968  12.144  25.591  0.00  0.00    +0.000 C 
BRANCH 192 193
ATOM    193  C   UNL     1     -12.884  13.081  25.751  0.00  0.00    +0.000 C 
ATOM    194  C   UNL     1     -12.131  13.583  24.612  0.00  0.00    +0.000 C 
BRANCH 193 195
ATOM    195  C   UNL     1     -12.461  13.565  27.079  0.00  0.00    +0.000 C 
ATOM    196  C   UNL     1     -12.529  12.359  28.029  0.00  0.00    +0.000 C 
ATOM    197  C   UNL     1     -11.000  14.032  27.068  0.00  0.00    +0.000 C 
BRANCH 195 198
ATOM    198  C   UNL     1     -13.432  14.756  27.579  0.00  0.00    +0.000 C 
ATOM    199  C   UNL     1     -13.089  15.206  28.931  0.00  0.00    +0.000 C 
ATOM    200  C   UNL     1     -14.859  14.316  27.542  0.00  0.00    +0.000 C 
BRANCH 198 201
ATOM    201  C   UNL     1     -13.476  16.088  26.738  0.00  0.00    +0.000 C 
ATOM    202  C   UNL     1     -14.111  17.229  27.473  0.00  0.00    +0.000 C 
ATOM    203  C   UNL     1     -14.276  15.942  25.472  0.00  0.00    +0.000 C 
ATOM    204  C   UNL     1     -12.124  16.546  26.459  0.00  0.00    +0.000 C 
ENDBRANCH 198 201
ENDBRANCH 195 198
ENDBRANCH 193 195
ENDBRANCH 192 193
ENDBRANCH  97 192
ENDBRANCH   1  97
BRANCH   1 205
ATOM    205  O   UNL     1     -15.096   9.666  24.771  0.00  0.00    +0.000 OA
BRANCH 205 206
ATOM    206  C   UNL     1     -16.141   9.034  24.067  0.00  0.00    +0.000 C 
BRANCH 206 207
ATOM    207  C   UNL     1     -17.357   8.843  24.927  0.00  0.00    +0.000 C 
BRANCH 207 208
ATOM    208  O   UNL     1     -17.034   8.147  26.137  0.00  0.00    +0.000 OA
BRANCH 208 209
ATOM    209  C   UNL     1     -18.104   8.157  27.107  0.00  0.00    +0.000 C 
BRANCH 209 210
ATOM    210  C   UNL     1     -19.312   8.872  26.556  0.00  0.00    +0.000 C 
BRANCH 210 211
ATOM    211  C   UNL     1     -20.185   9.505  27.640  0.00  0.00    +0.000 C 
BRANCH 211 212
ATOM    212  C   UNL     1     -20.436   8.539  28.777  0.00  0.00    +0.000 C 
BRANCH 212 213
ATOM    213  C   UNL     1     -21.544   7.596  28.443  0.00  0.00    +0.000 C 
BRANCH 213 214
ATOM    214  O   UNL     1     -21.460   6.447  29.150  0.00  0.00    +0.000 OA
BRANCH 214 215
ATOM    215  C   UNL     1     -20.375   6.477  30.120  0.00  0.00    +0.000 C 
BRANCH 215 216
ATOM    216  C   UNL     1     -20.035   5.102  30.654  0.00  0.00    +0.000 C 
BRANCH 216 217
ATOM    217  O   UNL     1     -21.122   4.545  31.244  0.00  0.00    +0.000 OA
BRANCH 217 218
ATOM    218  C   UNL     1     -22.026   3.416  30.877  0.00  0.00    +0.000 C 
BRANCH 218 219
ATOM    219  C   UNL     1     -21.962   2.425  32.088  0.00  0.00    +0.000 C 
BRANCH 219 220
ATOM    220  O   UNL     1     -21.844   1.125  31.646  0.00  0.00    +0.000 OA
BRANCH 220 221
ATOM    221  C   UNL     1     -21.488   0.144  32.636  0.00  0.00    +0.000 C 
BRANCH 221 222
ATOM    222  C   UNL     1     -21.237  -1.194  31.944  0.00  0.00    +0.000 C 
BRANCH 222 223
ATOM    223  O   UNL     1     -19.924  -1.284  31.451  0.00  0.00    +0.000 OA
BRANCH 223 224
ATOM    224  C   UNL     1     -18.960  -1.641  32.425  0.00  0.00    +0.000 C 
BRANCH 224 225
ATOM    225  C   UNL     1     -18.495  -3.067  32.107  0.00  0.00    +0.000 C 
BRANCH 225 226
ATOM    226  O   UNL     1     -17.941  -3.140  30.797  0.00  0.00    +0.000 OA
BRANCH 226 227
ATOM    227  C   UNL     1     -18.057  -4.425  30.213  0.00  0.00    +0.000 C 
BRANCH 227 228
ATOM    228  C   UNL     1     -19.429  -4.968  30.520  0.00  0.00    +0.000 C 
BRANCH 228 229
ATOM    229  O   UNL     1     -20.034  -5.559  29.402  0.00  0.00    +0.000 OA
BRANCH 229 230
ATOM    230  C   UNL     1     -19.936  -4.765  28.250  0.00  0.00    +0.000 C 
BRANCH 230 231
ATOM    231  C   UNL     1     -20.265  -5.568  27.028  0.00  0.00    +0.000 C 
BRANCH 231 232
ATOM    232  O   UNL     1     -21.050  -4.786  26.162  0.00  0.00    +0.000 OA
BRANCH 232 233
ATOM    233  C   UNL     1     -22.370  -4.601  26.619  0.00  0.00    +0.000 C 
BRANCH 233 234
ATOM    234  C   UNL     1     -23.191  -3.877  25.573  0.00  0.00    +0.000 C 
ATOM    235  O   UNL     1     -22.369  -3.589  24.464  0.00  0.00    +0.000 OA
ENDBRANCH 233 234
ENDBRANCH 232 233
ENDBRANCH 231 232
ENDBRANCH 230 231
ENDBRANCH 229 230
ENDBRANCH 228 229
ENDBRANCH 227 228
ENDBRANCH 226 227
ENDBRANCH 225 226
ENDBRANCH 224 225
ENDBRANCH 223 224
ENDBRANCH 222 223
ENDBRANCH 221 222
ENDBRANCH 220 221
ENDBRANCH 219 220
ENDBRANCH 218 219
ENDBRANCH 217 218
ENDBRANCH 216 217
ENDBRANCH 215 216
ENDBRANCH 214 215
ENDBRANCH 213 214
ENDBRANCH 212 213
ENDBRANCH 211 212
ENDBRANCH 210 211
ENDBRANCH 209 210
ENDBRANCH 208 209
ENDBRANCH 207 208
ENDBRANCH 206 207
ENDBRANCH 205 206
ENDBRANCH   1 205
TORSDOF 175
ENDMDL
MODEL 2
REMARK VINA RESULT:      -4.6      2.039      3.467
REMARK  Name = human_CD1d_Tyloxapol_pred.rank_0
REMARK  175 active torsions:
REMARK  status: ('A' for Active; 'I' for Inactive)
REMARK    1  A    between atoms: C_1  and  C_3
REMARK    2  A    between atoms: C_3  and  O_4
REMARK    3  A    between atoms: O_4  and  C_5
REMARK    4  A    between atoms: C_5  and  C_7
REMARK    5  A    between atoms: O_6  and  C_7
REMARK    6  A    between atoms: O_6  and  C_9
REMARK    7  A    between atoms: O_8  and  C_11
REMARK    8  A    between atoms: O_8  and  C_13
REMARK    9  A    between atoms: C_9  and  C_11
REMARK   10  A    between atoms: O_10  and  C_15
REMARK   11  A    between atoms: O_10  and  C_17
REMARK   12  A    between atoms: O_12  and  C_19
REMARK   13  A    between atoms: O_12  and  C_21
REMARK   14  A    between atoms: C_13  and  C_15
REMARK   15  A    between atoms: O_14  and  C_23
REMARK   16  A    between atoms: O_14  and  C_25
REMARK   17  A    between atoms: O_16  and  C_27
REMARK   18  A    between atoms: O_16  and  C_29
REMARK   19  A    between atoms: C_17  and  C_19
REMARK   20  A    between atoms: O_18  and  C_37
REMARK   21  A    between atoms: O_18  and  C_39
REMARK   22  A    between atoms: O_20  and  C_41
REMARK   23  A    between atoms: O_20  and  C_43
REMARK   24  A    between atoms: C_21  and  C_23
REMARK   25  A    between atoms: O_22  and  C_49
REMARK   26  A    between atoms: O_22  and  C_51
REMARK   27  A    between atoms: O_24  and  C_53
REMARK   28  A    between atoms: O_24  and  C_55
REMARK   29  A    between atoms: C_25  and  C_27
REMARK   30  A    between atoms: O_26  and  C_57
REMARK   31  A    between atoms: O_26  and  C_59
REMARK   32  A    between atoms: O_28  and  C_61
REMARK   33  A    between atoms: O_28  and  C_63
REMARK   34  A    between atoms: C_29  and  C_31
REMARK   35  A    between atoms: O_30  and  C_65
REMARK   36  A    between atoms: O_30  and  C_67
REMARK   37  A    between atoms: C_31  and  C_33
REMARK   38  A    between atoms: O_32  and  C_69
REMARK   39  A    between atoms: O_32  and  C_71
REMARK   40  A    between atoms: C_33  and  C_35
REMARK   41  A    between atoms: O_34  and  C_73
REMARK   42  A    between atoms: O_34  and  C_75
REMARK   43  A    between atoms: C_35  and  C_37
REMARK   44  A    between atoms: O_36  and  C_77
REMARK   45  A    between atoms: O_36  and  C_79
REMARK   46  A    between atoms: O_38  and  C_81
REMARK   47  A    between atoms: O_38  and  C_83
REMARK   48  A    between atoms: C_39  and  C_41
REMARK   49  A    between atoms: O_40  and  C_85
REMARK   50  A    between atoms: O_40  and  C_87
REMARK   51  A    between atoms: C_43  and  C_45
REMARK   52  A    between atoms: C_43  and  C_163
REMARK   53  A    between atoms: O_44  and  C_116
REMARK   54  A    between atoms: O_44  and  C_117
REMARK   55  A    between atoms: C_45  and  C_47
REMARK   56  A    between atoms: C_45  and  C_150
REMARK   57  A    between atoms: O_46  and  C_118
REMARK   58  A    between atoms: O_46  and  C_119
REMARK   59  A    between atoms: O_48  and  C_120
REMARK   60  A    between atoms: O_48  and  C_121
REMARK   61  A    between atoms: O_50  and  C_122
REMARK   62  A    between atoms: O_50  and  C_123
REMARK   63  A    between atoms: C_51  and  C_53
REMARK   64  A    between atoms: O_52  and  C_124
REMARK   65  A    between atoms: O_52  and  C_125
REMARK   66  A    between atoms: O_54  and  C_126
REMARK   67  A    between atoms: O_54  and  C_127
REMARK   68  A    between atoms: C_55  and  C_57
REMARK   69  A    between atoms: O_56  and  C_128
REMARK   70  A    between atoms: O_56  and  C_129
REMARK   71  A    between atoms: O_58  and  C_130
REMARK   72  A    between atoms: O_58  and  C_131
REMARK   73  A    between atoms: C_59  and  C_61
REMARK   74  A    between atoms: O_60  and  C_132
REMARK   75  A    between atoms: O_60  and  C_133
REMARK   76  A    between atoms: O_62  and  C_134
REMARK   77  A    between atoms: O_62  and  C_135
REMARK   78  A    between atoms: C_63  and  C_65
REMARK   79  A    between atoms: O_66  and  C_180
REMARK   80  A    between atoms: O_66  and  C_181
REMARK   81  A    between atoms: C_67  and  C_69
REMARK   82  A    between atoms: O_68  and  C_182
REMARK   83  A    between atoms: O_68  and  C_183
REMARK   84  A    between atoms: O_70  and  C_184
REMARK   85  A    between atoms: O_70  and  C_185
REMARK   86  A    between atoms: C_71  and  C_73
REMARK   87  A    between atoms: O_72  and  C_186
REMARK   88  A    between atoms: O_72  and  C_187
REMARK   89  A    between atoms: O_74  and  C_188
REMARK   90  A    between atoms: O_74  and  C_189
REMARK   91  A    between atoms: C_75  and  C_77
REMARK   92  A    between atoms: O_76  and  C_190
REMARK   93  A    between atoms: O_76  and  C_191
REMARK   94  A    between atoms: O_78  and  C_192
REMARK   95  A    between atoms: O_78  and  C_193
REMARK   96  A    between atoms: C_79  and  C_81
REMARK   97  A    between atoms: O_80  and  C_194
REMARK   98  A    between atoms: O_80  and  C_195
REMARK   99  A    between atoms: O_82  and  C_196
REMARK  100  A    between atoms: O_82  and  C_197
REMARK  101  A    between atoms: C_83  and  C_85
REMARK  102  A    between atoms: O_84  and  C_198
REMARK  103  A    between atoms: O_84  and  C_199
REMARK  104  A    between atoms: C_87  and  C_89
REMARK  105  A    between atoms: O_88  and  C_215
REMARK  106  A    between atoms: O_88  and  C_216
REMARK  107  A    between atoms: O_90  and  C_217
REMARK  108  A    between atoms: O_90  and  C_218
REMARK  109  A    between atoms: O_92  and  C_219
REMARK  110  A    between atoms: O_92  and  C_220
REMARK  111  A    between atoms: O_94  and  C_221
REMARK  112  A    between atoms: O_94  and  C_222
REMARK  113  A    between atoms: O_96  and  C_223
REMARK  114  A    between atoms: O_96  and  C_224
REMARK  115  A    between atoms: C_97  and  C_99
REMARK  116  A    between atoms: O_98  and  C_225
REMARK  117  A    between atoms: O_98  and  C_226
REMARK  118  A    between atoms: C_99  and  C_105
REMARK  119  A    between atoms: O_100  and  C_227
REMARK  120  A    between atoms: O_100  and  C_228
REMARK  121  A    between atoms: O_102  and  C_229
REMARK  122  A    between atoms: O_102  and  C_230
REMARK  123  A    between atoms: O_104  and  C_231
REMARK  124  A    between atoms: O_104  and  C_232
REMARK  125  A    between atoms: C_105  and  C_107
REMARK  126  A    between atoms: O_106  and  C_233
REMARK  127  A    between atoms: O_106  and  C_234
REMARK  128  A    between atoms: C_117  and  C_118
REMARK  129  A    between atoms: C_119  and  C_120
REMARK  130  A    between atoms: C_121  and  C_122
REMARK  131  A    between atoms: C_123  and  C_124
REMARK  132  A    between atoms: C_125  and  C_126
REMARK  133  A    between atoms: C_127  and  C_128
REMARK  134  A    between atoms: C_129  and  C_130
REMARK  135  A    between atoms: C_131  and  C_132
REMARK  136  A    between atoms: C_133  and  C_134
REMARK  137  A    between atoms: C_135  and  C_136
REMARK  138  A    between atoms: C_138  and  C_139
REMARK  139  A    between atoms: C_139  and  C_142
REMARK  140  A    between atoms: C_142  and  C_145
REMARK  141  A    between atoms: C_150  and  C_151
REMARK  142  A    between atoms: C_151  and  C_152
REMARK  143  A    between atoms: C_152  and  C_155
REMARK  144  A    between atoms: C_155  and  C_158
REMARK  145  A    between atoms: C_163  and  C_164
REMARK  146  A    between atoms: C_166  and  C_167
REMARK  147  A    between atoms: C_167  and  C_168
REMARK  148  A    between atoms: C_168  and  C_171
REMARK  149  A    between atoms: C_178  and  C_179
REMARK  150  A    between atoms: C_179  and  C_180
REMARK  151  A    between atoms: C_179  and  C_214
REMARK  152  A    between atoms: C_181  and  C_182
REMARK  153  A    between atoms: C_183  and  C_184
REMARK  154  A    between atoms: C_185  and  C_186
REMARK  155  A    between atoms: C_187  and  C_188
REMARK  156  A    between atoms: C_189  and  C_190
REMARK  157  A    between atoms: C_191  and  C_192
REMARK  158  A    between atoms: C_193  and  C_194
REMARK  159  A    between atoms: C_195  and  C_196
REMARK  160  A    between atoms: C_197  and  C_198
REMARK  161  A    between atoms: C_199  and  C_200
REMARK  162  A    between atoms: C_203  and  C_204
REMARK  163  A    between atoms: C_203  and  C_214
REMARK  164  A    between atoms: C_204  and  C_207
REMARK  165  A    between atoms: C_207  and  C_210
REMARK  166  A    between atoms: C_216  and  C_217
REMARK  167  A    between atoms: C_218  and  C_219
REMARK  168  A    between atoms: C_220  and  C_221
REMARK  169  A    between atoms: C_222  and  C_223
REMARK  170  A    between atoms: C_224  and  C_225
REMARK  171  A    between atoms: C_226  and  C_227
REMARK  172  A    between atoms: C_228  and  C_229
REMARK  173  A    between atoms: C_230  and  C_231
REMARK  174  A    between atoms: C_232  and  C_233
REMARK  175  A    between atoms: C_234  and  C_235
REMARK                            x       y       z     vdW  Elec       q    Type
REMARK                         _______ _______ _______ _____ _____    ______ ____
ROOT
ATOM      1  C   UNL     1     -14.273  10.669  24.872  0.00  0.00    +0.000 C 
ENDROOT
BRANCH   1   2
ATOM      2  C   UNL     1     -12.504   9.945  25.285  0.00  0.00    +0.000 C 
BRANCH   2   3
ATOM      3  C   UNL     1     -12.332   8.406  25.497  0.00  0.00    +0.000 C 
ATOM      4  C   UNL     1     -11.815   8.044  27.027  0.00  0.00    +0.000 C 
ATOM      5  C   UNL     1     -10.303   7.876  27.094  0.00  0.00    +0.000 C 
ATOM      6  C   UNL     1      -9.906   6.449  26.167  0.00  0.00    +0.000 C 
ATOM      7  C   UNL     1      -9.833   6.518  24.696  0.00  0.00    +0.000 C 
ATOM      8  C   UNL     1     -11.254   7.376  24.097  0.00  0.00    +0.000 C 
BRANCH   5   9
ATOM      9  C   UNL     1      -9.770   7.807  28.628  0.00  0.00    +0.000 C 
ATOM     10  C   UNL     1     -10.682   7.443  29.347  0.00  0.00    +0.000 C 
ATOM     11  C   UNL     1      -8.435   6.942  28.588  0.00  0.00    +0.000 C 
BRANCH   9  12
ATOM     12  C   UNL     1      -9.214   9.254  29.176  0.00  0.00    +0.000 C 
ATOM     13  C   UNL     1      -9.557   9.449  30.674  0.00  0.00    +0.000 C 
ATOM     14  C   UNL     1     -10.181  10.532  28.591  0.00  0.00    +0.000 C 
BRANCH  12  15
ATOM     15  C   UNL     1      -7.861   9.757  28.782  0.00  0.00    +0.000 C 
ATOM     16  C   UNL     1      -7.126   9.430  30.074  0.00  0.00    +0.000 C 
ATOM     17  C   UNL     1      -7.712  11.212  28.582  0.00  0.00    +0.000 C 
ATOM     18  C   UNL     1      -7.310   9.075  27.602  0.00  0.00    +0.000 C 
ENDBRANCH  12  15
ENDBRANCH   9  12
ENDBRANCH   5   9
BRANCH   7  19
ATOM     19  C   UNL     1      -9.100   5.314  23.967  0.00  0.00    +0.000 C 
BRANCH  19  20
ATOM     20  C   UNL     1     -10.075   4.166  23.518  0.00  0.00    +0.000 C 
ATOM     21  C   UNL     1     -11.202   3.875  24.588  0.00  0.00    +0.000 C 
BRANCH  20  22
ATOM     22  O   UNL     1     -10.836   4.620  22.339  0.00  0.00    +0.000 OA
BRANCH  22  23
ATOM     23  C   UNL     1     -11.348   3.601  21.526  0.00  0.00    +0.000 C 
BRANCH  23  24
ATOM     24  C   UNL     1     -11.262   3.999  20.059  0.00  0.00    +0.000 C 
BRANCH  24  25
ATOM     25  O   UNL     1     -12.547   4.211  19.572  0.00  0.00    +0.000 OA
BRANCH  25  26
ATOM     26  C   UNL     1     -12.776   3.584  18.320  0.00  0.00    +0.000 C 
BRANCH  26  27
ATOM     27  C   UNL     1     -13.689   4.381  17.493  0.00  0.00    +0.000 C 
BRANCH  27  28
ATOM     28  O   UNL     1     -13.397   4.176  16.160  0.00  0.00    +0.000 OA
BRANCH  28  29
ATOM     29  C   UNL     1     -12.057   3.814  15.900  0.00  0.00    +0.000 C 
BRANCH  29  30
ATOM     30  C   UNL     1     -11.729   4.143  14.462  0.00  0.00    +0.000 C 
BRANCH  30  31
ATOM     31  O   UNL     1     -10.679   3.317  14.063  0.00  0.00    +0.000 OA
BRANCH  31  32
ATOM     32  C   UNL     1      -9.555   4.091  13.606  0.00  0.00    +0.000 C 
BRANCH  32  33
ATOM     33  C   UNL     1     -10.084   5.159  12.636  0.00  0.00    +0.000 C 
BRANCH  33  34
ATOM     34  O   UNL     1      -9.097   5.420  11.691  0.00  0.00    +0.000 OA
BRANCH  34  35
ATOM     35  C   UNL     1      -9.057   4.475  10.604  0.00  0.00    +0.000 C 
BRANCH  35  36
ATOM     36  C   UNL     1     -10.038   4.814   9.523  0.00  0.00    +0.000 C 
BRANCH  36  37
ATOM     37  O   UNL     1      -9.273   4.951   8.289  0.00  0.00    +0.000 OA
BRANCH  37  38
ATOM     38  C   UNL     1      -9.897   5.861   7.419  0.00  0.00    +0.000 C 
BRANCH  38  39
ATOM     39  C   UNL     1     -11.358   5.958   7.607  0.00  0.00    +0.000 C 
BRANCH  39  40
ATOM     40  O   UNL     1     -12.016   5.279   6.436  0.00  0.00    +0.000 OA
BRANCH  40  41
ATOM     41  C   UNL     1     -12.613   4.055   6.798  0.00  0.00    +0.000 C 
BRANCH  41  42
ATOM     42  C   UNL     1     -13.963   3.905   6.190  0.00  0.00    +0.000 C 
BRANCH  42  43
ATOM     43  O   UNL     1     -14.258   2.584   5.963  0.00  0.00    +0.000 OA
BRANCH  43  44
ATOM     44  C   UNL     1     -13.867   1.681   6.957  0.00  0.00    +0.000 C 
BRANCH  44  45
ATOM     45  C   UNL     1     -14.837   1.632   8.083  0.00  0.00    +0.000 C 
BRANCH  45  46
ATOM     46  O   UNL     1     -15.043   0.256   8.415  0.00  0.00    +0.000 OA
BRANCH  46  47
ATOM     47  C   UNL     1     -14.904   0.084   9.816  0.00  0.00    +0.000 C 
BRANCH  47  48
ATOM     48  C   UNL     1     -16.243  -0.565  10.365  0.00  0.00    +0.000 C 
BRANCH  48  49
ATOM     49  O   UNL     1     -16.391  -0.249  11.705  0.00  0.00    +0.000 OA
BRANCH  49  50
ATOM     50  C   UNL     1     -15.539  -0.907  12.581  0.00  0.00    +0.000 C 
BRANCH  50  52
ATOM     51  O   UNL     1     -15.261   1.411  13.066  0.00  0.00    +0.000 OA
ATOM     52  C   UNL     1     -14.670   0.123  13.330  0.00  0.00    +0.000 C 
ENDBRANCH  50  52
ENDBRANCH  49  50
ENDBRANCH  48  49
ENDBRANCH  47  48
ENDBRANCH  46  47
ENDBRANCH  45  46
ENDBRANCH  44  45
ENDBRANCH  43  44
ENDBRANCH  42  43
ENDBRANCH  41  42
ENDBRANCH  40  41
ENDBRANCH  39  40
ENDBRANCH  38  39
ENDBRANCH  37  38
ENDBRANCH  36  37
ENDBRANCH  35  36
ENDBRANCH  34  35
ENDBRANCH  33  34
ENDBRANCH  32  33
ENDBRANCH  31  32
ENDBRANCH  30  31
ENDBRANCH  29  30
ENDBRANCH  28  29
ENDBRANCH  27  28
ENDBRANCH  26  27
ENDBRANCH  25  26
ENDBRANCH  24  25
ENDBRANCH  23  24
ENDBRANCH  22  23
ENDBRANCH  20  22
ENDBRANCH  19  20
BRANCH  19  53
ATOM     53  C   UNL     1      -8.241   5.661  22.643  0.00  0.00    +0.000 C 
BRANCH  53  55
ATOM     54  C   UNL     1      -7.875   4.527  20.591  0.00  0.00    +0.000 C 
ATOM     55  C   UNL     1      -7.368   4.940  21.926  0.00  0.00    +0.000 C 
BRANCH  55  56
ATOM     56  C   UNL     1      -5.967   4.540  22.382  0.00  0.00    +0.000 C 
ATOM     57  C   UNL     1      -6.219   3.305  23.178  0.00  0.00    +0.000 C 
ATOM     58  C   UNL     1      -5.151   4.148  21.183  0.00  0.00    +0.000 C 
BRANCH  56  59
ATOM     59  C   UNL     1      -5.284   5.675  23.204  0.00  0.00    +0.000 C 
ATOM     60  C   UNL     1      -5.855   5.813  24.561  0.00  0.00    +0.000 C 
ATOM     61  C   UNL     1      -5.491   6.996  22.424  0.00  0.00    +0.000 C 
BRANCH  59  62
ATOM     62  C   UNL     1      -3.704   5.504  23.364  0.00  0.00    +0.000 C 
ATOM     63  C   UNL     1      -3.377   4.684  24.561  0.00  0.00    +0.000 C 
ATOM     64  C   UNL     1      -3.072   6.853  23.607  0.00  0.00    +0.000 C 
ATOM     65  C   UNL     1      -3.041   4.981  22.184  0.00  0.00    +0.000 C 
ENDBRANCH  59  62
ENDBRANCH  56  59
ENDBRANCH  55  56
ENDBRANCH  53  55
ENDBRANCH  19  53
ENDBRANCH   7  19
BRANCH   8  66
ATOM     66  O   UNL     1     -11.704   7.425  22.810  0.00  0.00    +0.000 OA
BRANCH  66  67
ATOM     67  C   UNL     1     -11.393   8.598  22.093  0.00  0.00    +0.000 C 
BRANCH  67  68
ATOM     68  C   UNL     1     -12.350   9.001  20.950  0.00  0.00    +0.000 C 
BRANCH  68  69
ATOM     69  O   UNL     1     -13.234   7.942  20.706  0.00  0.00    +0.000 OA
BRANCH  69  70
ATOM     70  C   UNL     1     -14.628   8.291  20.987  0.00  0.00    +0.000 C 
BRANCH  70  71
ATOM     71  C   UNL     1     -15.013   9.588  20.295  0.00  0.00    +0.000 C 
BRANCH  71  72
ATOM     72  O   UNL     1     -15.983   9.268  19.142  0.00  0.00    +0.000 OA
BRANCH  72  73
ATOM     73  C   UNL     1     -16.285   7.880  19.103  0.00  0.00    +0.000 C 
BRANCH  73  74
ATOM     74  C   UNL     1     -17.690   7.663  19.680  0.00  0.00    +0.000 C 
BRANCH  74  75
ATOM     75  O   UNL     1     -18.621   7.453  18.666  0.00  0.00    +0.000 OA
BRANCH  75  76
ATOM     76  C   UNL     1     -19.299   8.651  18.263  0.00  0.00    +0.000 C 
BRANCH  76  77
ATOM     77  C   UNL     1     -20.793   8.468  18.236  0.00  0.00    +0.000 C 
BRANCH  77  78
ATOM     78  O   UNL     1     -21.239   9.271  17.152  0.00  0.00    +0.000 OA
BRANCH  78  79
ATOM     79  C   UNL     1     -22.631   9.012  16.768  0.00  0.00    +0.000 C 
BRANCH  79  80
ATOM     80  C   UNL     1     -23.010   7.724  17.393  0.00  0.00    +0.000 C 
BRANCH  80  81
ATOM     81  O   UNL     1     -24.338   7.761  17.981  0.00  0.00    +0.000 OA
BRANCH  81  82
ATOM     82  C   UNL     1     -25.299   7.080  17.239  0.00  0.00    +0.000 C 
BRANCH  82  83
ATOM     83  C   UNL     1     -25.588   5.702  17.867  0.00  0.00    +0.000 C 
BRANCH  83  84
ATOM     84  O   UNL     1     -25.235   5.699  19.230  0.00  0.00    +0.000 OA
BRANCH  84  85
ATOM     85  C   UNL     1     -25.346   4.546  19.901  0.00  0.00    +0.000 C 
BRANCH  85  86
ATOM     86  C   UNL     1     -24.015   3.766  19.867  0.00  0.00    +0.000 C 
BRANCH  86  87
ATOM     87  O   UNL     1     -24.153   2.461  19.369  0.00  0.00    +0.000 OA
BRANCH  87  88
ATOM     88  C   UNL     1     -24.039   2.360  17.993  0.00  0.00    +0.000 C 
BRANCH  88  89
ATOM     89  C   UNL     1     -22.835   3.133  17.481  0.00  0.00    +0.000 C 
BRANCH  89  90
ATOM     90  O   UNL     1     -22.367   2.536  16.276  0.00  0.00    +0.000 OA
BRANCH  90  91
ATOM     91  C   UNL     1     -22.994   3.196  15.156  0.00  0.00    +0.000 C 
BRANCH  91  92
ATOM     92  C   UNL     1     -23.582   2.128  14.269  0.00  0.00    +0.000 C 
BRANCH  92  93
ATOM     93  O   UNL     1     -24.843   2.585  13.789  0.00  0.00    +0.000 OA
BRANCH  93  94
ATOM     94  C   UNL     1     -25.052   2.319  12.455  0.00  0.00    +0.000 C 
BRANCH  94  96
ATOM     95  O   UNL     1     -23.590   2.442  10.552  0.00  0.00    +0.000 OA
ATOM     96  C   UNL     1     -24.161   3.207  11.580  0.00  0.00    +0.000 C 
ENDBRANCH  94  96
ENDBRANCH  93  94
ENDBRANCH  92  93
ENDBRANCH  91  92
ENDBRANCH  90  91
ENDBRANCH  89  90
ENDBRANCH  88  89
ENDBRANCH  87  88
ENDBRANCH  86  87
ENDBRANCH  85  86
ENDBRANCH  84  85
ENDBRANCH  83  84
ENDBRANCH  82  83
ENDBRANCH  81  82
ENDBRANCH  80  81
ENDBRANCH  79  80
ENDBRANCH  78  79
ENDBRANCH  77  78
ENDBRANCH  76  77
ENDBRANCH  75  76
ENDBRANCH  74  75
ENDBRANCH  73  74
ENDBRANCH  72  73
ENDBRANCH  71  72
ENDBRANCH  70  71
ENDBRANCH  69  70
ENDBRANCH  68  69
ENDBRANCH  67  68
ENDBRANCH  66  67
ENDBRANCH   8  66
ENDBRANCH   2   3
ENDBRANCH   1   2
BRANCH   1  97
ATOM     97  C   UNL     1     -14.670  12.133  24.823  0.00  0.00    +0.000 C 
BRANCH  97  98
ATOM     98  C   UNL     1     -16.272  12.331  24.728  0.00  0.00    +0.000 C 
ATOM     99  C   UNL     1     -16.889  12.817  26.074  0.00  0.00    +0.000 C 
ATOM    100  C   UNL     1     -18.465  13.043  26.097  0.00  0.00    +0.000 C 
ATOM    101  C   UNL     1     -19.755  13.377  26.707  0.00  0.00    +0.000 C 
ATOM    102  C   UNL     1     -21.080  12.707  26.429  0.00  0.00    +0.000 C 
ATOM    103  C   UNL     1     -22.286  13.087  27.134  0.00  0.00    +0.000 C 
ATOM    104  C   UNL     1     -22.140  14.085  28.159  0.00  0.00    +0.000 C 
ATOM    105  C   UNL     1     -20.966  14.791  28.398  0.00  0.00    +0.000 C 
ATOM    106  C   UNL     1     -19.909  14.392  27.637  0.00  0.00    +0.000 C 
ATOM    107  C   UNL     1     -18.801  12.591  25.473  0.00  0.00    +0.000 C 
ATOM    108  C   UNL     1     -18.549  12.242  24.192  0.00  0.00    +0.000 C 
ATOM    109  C   UNL     1     -17.143  12.425  23.602  0.00  0.00    +0.000 C 
BRANCH 103 110
ATOM    110  C   UNL     1     -23.615  12.452  26.736  0.00  0.00    +0.000 C 
ATOM    111  C   UNL     1     -24.558  13.668  26.506  0.00  0.00    +0.000 C 
ATOM    112  C   UNL     1     -23.481  11.824  25.427  0.00  0.00    +0.000 C 
BRANCH 110 113
ATOM    113  C   UNL     1     -24.347  11.464  27.675  0.00  0.00    +0.000 C 
ATOM    114  C   UNL     1     -25.021  12.297  28.719  0.00  0.00    +0.000 C 
ATOM    115  C   UNL     1     -25.376  10.673  26.862  0.00  0.00    +0.000 C 
BRANCH 113 116
ATOM    116  C   UNL     1     -23.414  10.365  28.355  0.00  0.00    +0.000 C 
ATOM    117  C   UNL     1     -24.241   9.329  29.091  0.00  0.00    +0.000 C 
ATOM    118  C   UNL     1     -22.574  10.978  29.419  0.00  0.00    +0.000 C 
ATOM    119  C   UNL     1     -22.510   9.722  27.341  0.00  0.00    +0.000 C 
ENDBRANCH 113 116
ENDBRANCH 110 113
ENDBRANCH 103 110
BRANCH 108 120
ATOM    120  C   UNL     1     -19.477  11.146  23.549  0.00  0.00    +0.000 C 
ATOM    121  C   UNL     1     -20.220  10.464  24.711  0.00  0.00    +0.000 C 
ATOM    122  C   UNL     1     -18.584  10.100  22.987  0.00  0.00    +0.000 C 
BRANCH 120 123
ATOM    123  C   UNL     1     -20.680  11.646  22.572  0.00  0.00    +0.000 C 
ATOM    124  C   UNL     1     -21.772  10.680  22.443  0.00  0.00    +0.000 C 
ATOM    125  C   UNL     1     -21.322  12.898  23.117  0.00  0.00    +0.000 C 
BRANCH 123 126
ATOM    126  C   UNL     1     -20.245  11.906  21.088  0.00  0.00    +0.000 C 
ATOM    127  C   UNL     1     -19.932  13.355  20.942  0.00  0.00    +0.000 C 
ATOM    128  C   UNL     1     -21.382  11.640  20.139  0.00  0.00    +0.000 C 
ATOM    129  C   UNL     1     -19.140  11.000  20.698  0.00  0.00    +0.000 C 
ENDBRANCH 123 126
ENDBRANCH 120 123
ENDBRANCH 108 120
BRANCH 106 130
ATOM    130  O   UNL     1     -18.775  15.171  27.649  0.00  0.00    +0.000 OA
BRANCH 130 131
ATOM    131  C   UNL     1     -18.571  16.114  28.728  0.00  0.00    +0.000 C 
BRANCH 131 132
ATOM    132  C   UNL     1     -17.783  17.280  28.160  0.00  0.00    +0.000 C 
BRANCH 132 133
ATOM    133  O   UNL     1     -18.306  17.658  26.934  0.00  0.00    +0.000 OA
BRANCH 133 134
ATOM    134  C   UNL     1     -19.517  18.388  27.043  0.00  0.00    +0.000 C 
BRANCH 134 135
ATOM    135  C   UNL     1     -20.528  17.825  26.106  0.00  0.00    +0.000 C 
BRANCH 135 136
ATOM    136  O   UNL     1     -19.949  17.616  25.139  0.00  0.00    +0.000 OA
BRANCH 136 137
ATOM    137  C   UNL     1     -20.299  16.416  24.544  0.00  0.00    +0.000 C 
BRANCH 137 138
ATOM    138  C   UNL     1     -19.215  15.874  23.552  0.00  0.00    +0.000 C 
BRANCH 138 139
ATOM    139  O   UNL     1     -18.036  15.847  24.216  0.00  0.00    +0.000 OA
BRANCH 139 140
ATOM    140  C   UNL     1     -16.923  16.259  23.392  0.00  0.00    +0.000 C 
BRANCH 140 141
ATOM    141  C   UNL     1     -17.295  17.505  22.652  0.00  0.00    +0.000 C 
BRANCH 141 142
ATOM    142  O   UNL     1     -16.555  17.588  21.454  0.00  0.00    +0.000 OA
BRANCH 142 143
ATOM    143  C   UNL     1     -17.016  16.696  20.443  0.00  0.00    +0.000 C 
BRANCH 143 144
ATOM    144  C   UNL     1     -15.993  16.653  19.277  0.00  0.00    +0.000 C 
BRANCH 144 145
ATOM    145  O   UNL     1     -16.318  17.607  18.252  0.00  0.00    +0.000 OA
BRANCH 145 146
ATOM    146  C   UNL     1     -17.159  17.193  17.166  0.00  0.00    +0.000 C 
BRANCH 146 147
ATOM    147  C   UNL     1     -16.983  18.057  15.942  0.00  0.00    +0.000 C 
BRANCH 147 148
ATOM    148  O   UNL     1     -16.339  17.261  14.930  0.00  0.00    +0.000 OA
BRANCH 148 149
ATOM    149  C   UNL     1     -14.954  17.031  15.130  0.00  0.00    +0.000 C 
BRANCH 149 150
ATOM    150  C   UNL     1     -14.199  18.340  15.037  0.00  0.00    +0.000 C 
BRANCH 150 151
ATOM    151  O   UNL     1     -12.794  18.054  15.045  0.00  0.00    +0.000 OA
BRANCH 151 152
ATOM    152  C   UNL     1     -11.997  18.905  15.791  0.00  0.00    +0.000 C 
BRANCH 152 153
ATOM    153  C   UNL     1     -10.601  18.341  15.979  0.00  0.00    +0.000 C 
BRANCH 153 154
ATOM    154  O   UNL     1     -10.304  17.447  14.907  0.00  0.00    +0.000 OA
BRANCH 154 155
ATOM    155  C   UNL     1      -9.151  16.680  15.102  0.00  0.00    +0.000 C 
BRANCH 155 156
ATOM    156  C   UNL     1      -7.886  17.547  14.874  0.00  0.00    +0.000 C 
BRANCH 156 157
ATOM    157  O   UNL     1      -7.143  17.540  16.097  0.00  0.00    +0.000 OA
BRANCH 157 158
ATOM    158  C   UNL     1      -5.774  17.297  15.903  0.00  0.00    +0.000 C 
BRANCH 158 160
ATOM    159  O   UNL     1      -5.405  18.144  18.197  0.00  0.00    +0.000 OA
ATOM    160  C   UNL     1      -5.090  18.314  16.707  0.00  0.00    +0.000 C 
ENDBRANCH 158 160
ENDBRANCH 157 158
ENDBRANCH 156 157
ENDBRANCH 155 156
ENDBRANCH 154 155
ENDBRANCH 153 154
ENDBRANCH 152 153
ENDBRANCH 151 152
ENDBRANCH 150 151
ENDBRANCH 149 150
ENDBRANCH 148 149
ENDBRANCH 147 148
ENDBRANCH 146 147
ENDBRANCH 145 146
ENDBRANCH 144 145
ENDBRANCH 143 144
ENDBRANCH 142 143
ENDBRANCH 141 142
ENDBRANCH 140 141
ENDBRANCH 139 140
ENDBRANCH 138 139
ENDBRANCH 137 138
ENDBRANCH 136 137
ENDBRANCH 135 136
ENDBRANCH 134 135
ENDBRANCH 133 134
ENDBRANCH 132 133
ENDBRANCH 131 132
ENDBRANCH 130 131
ENDBRANCH 106 130
BRANCH  99 161
ATOM    161  O   UNL     1     -16.397  12.342  27.264  0.00  0.00    +0.000 OA
BRANCH 161 162
ATOM    162  C   UNL     1     -16.392  13.193  28.416  0.00  0.00    +0.000 C 
BRANCH 162 163
ATOM    163  C   UNL     1     -17.137  12.662  29.630  0.00  0.00    +0.000 C 
BRANCH 163 164
ATOM    164  O   UNL     1     -16.554  13.136  30.806  0.00  0.00    +0.000 OA
BRANCH 164 165
ATOM    165  C   UNL     1     -17.371  13.962  31.592  0.00  0.00    +0.000 C 
BRANCH 165 166
ATOM    166  C   UNL     1     -18.648  13.264  32.069  0.00  0.00    +0.000 C 
BRANCH 166 167
ATOM    167  O   UNL     1     -19.789  14.102  31.756  0.00  0.00    +0.000 OA
BRANCH 167 168
ATOM    168  C   UNL     1     -20.990  13.362  31.820  0.00  0.00    +0.000 C 
BRANCH 168 169
ATOM    169  C   UNL     1     -20.779  12.048  32.558  0.00  0.00    +0.000 C 
BRANCH 169 170
ATOM    170  O   UNL     1     -21.514  12.037  33.743  0.00  0.00    +0.000 OA
BRANCH 170 171
ATOM    171  C   UNL     1     -21.022  11.125  34.705  0.00  0.00    +0.000 C 
BRANCH 171 172
ATOM    172  C   UNL     1     -20.136  10.020  34.046  0.00  0.00    +0.000 C 
BRANCH 172 173
ATOM    173  O   UNL     1     -20.825   8.789  34.188  0.00  0.00    +0.000 OA
BRANCH 173 174
ATOM    174  C   UNL     1     -20.987   8.152  32.883  0.00  0.00    +0.000 C 
BRANCH 174 175
ATOM    175  C   UNL     1     -22.328   8.566  32.279  0.00  0.00    +0.000 C 
BRANCH 175 176
ATOM    176  O   UNL     1     -23.075   7.414  32.061  0.00  0.00    +0.000 OA
BRANCH 176 177
ATOM    177  C   UNL     1     -24.414   7.545  32.512  0.00  0.00    +0.000 C 
BRANCH 177 178
ATOM    178  C   UNL     1     -24.966   6.134  32.667  0.00  0.00    +0.000 C 
BRANCH 178 179
ATOM    179  O   UNL     1     -26.245   6.187  33.273  0.00  0.00    +0.000 OA
BRANCH 179 180
ATOM    180  C   UNL     1     -27.166   7.066  32.574  0.00  0.00    +0.000 C 
BRANCH 180 181
ATOM    181  C   UNL     1     -27.942   6.272  31.523  0.00  0.00    +0.000 C 
BRANCH 181 182
ATOM    182  O   UNL     1     -27.597   6.698  30.234  0.00  0.00    +0.000 OA
BRANCH 182 183
ATOM    183  C   UNL     1     -27.064   5.607  29.405  0.00  0.00    +0.000 C 
BRANCH 183 184
ATOM    184  C   UNL     1     -25.661   5.876  28.860  0.00  0.00    +0.000 C 
BRANCH 184 185
ATOM    185  O   UNL     1     -25.827   6.463  27.610  0.00  0.00    +0.000 OA
BRANCH 185 186
ATOM    186  C   UNL     1     -24.947   5.910  26.616  0.00  0.00    +0.000 C 
BRANCH 186 187
ATOM    187  C   UNL     1     -24.187   7.009  25.907  0.00  0.00    +0.000 C 
BRANCH 187 188
ATOM    188  O   UNL     1     -24.307   6.708  24.454  0.00  0.00    +0.000 OA
BRANCH 188 189
ATOM    189  C   UNL     1     -25.566   6.056  24.188  0.00  0.00    +0.000 C 
BRANCH 189 191
ATOM    190  O   UNL     1     -26.512   8.048  23.328  0.00  0.00    +0.000 OA
ATOM    191  C   UNL     1     -26.176   6.744  22.989  0.00  0.00    +0.000 C 
ENDBRANCH 189 191
ENDBRANCH 188 189
ENDBRANCH 187 188
ENDBRANCH 186 187
ENDBRANCH 185 186
ENDBRANCH 184 185
ENDBRANCH 183 184
ENDBRANCH 182 183
ENDBRANCH 181 182
ENDBRANCH 180 181
ENDBRANCH 179 180
ENDBRANCH 178 179
ENDBRANCH 177 178
ENDBRANCH 176 177
ENDBRANCH 175 176
ENDBRANCH 174 175
ENDBRANCH 173 174
ENDBRANCH 172 173
ENDBRANCH 171 172
ENDBRANCH 170 171
ENDBRANCH 169 170
ENDBRANCH 168 169
ENDBRANCH 167 168
ENDBRANCH 166 167
ENDBRANCH 165 166
ENDBRANCH 164 165
ENDBRANCH 163 164
ENDBRANCH 162 163
ENDBRANCH 161 162
ENDBRANCH  99 161
ENDBRANCH  97  98
BRANCH  97 192
ATOM    192  C   UNL     1     -13.641  12.597  25.698  0.00  0.00    +0.000 C 
BRANCH 192 193
ATOM    193  C   UNL     1     -12.818  13.768  25.525  0.00  0.00    +0.000 C 
ATOM    194  C   UNL     1     -11.850  13.872  24.445  0.00  0.00    +0.000 C 
BRANCH 193 195
ATOM    195  C   UNL     1     -12.896  14.918  26.446  0.00  0.00    +0.000 C 
ATOM    196  C   UNL     1     -11.940  15.989  25.895  0.00  0.00    +0.000 C 
ATOM    197  C   UNL     1     -14.297  15.542  26.449  0.00  0.00    +0.000 C 
BRANCH 195 198
ATOM    198  C   UNL     1     -12.472  14.473  27.941  0.00  0.00    +0.000 C 
ATOM    199  C   UNL     1     -12.456  13.015  28.090  0.00  0.00    +0.000 C 
ATOM    200  C   UNL     1     -13.401  15.071  28.946  0.00  0.00    +0.000 C 
BRANCH 198 201
ATOM    201  C   UNL     1     -11.064  14.923  28.484  0.00  0.00    +0.000 C 
ATOM    202  C   UNL     1     -10.742  14.355  29.832  0.00  0.00    +0.000 C 
ATOM    203  C   UNL     1     -10.963  16.416  28.654  0.00  0.00    +0.000 C 
ATOM    204  C   UNL     1     -10.010  14.418  27.618  0.00  0.00    +0.000 C 
ENDBRANCH 198 201
ENDBRANCH 195 198
ENDBRANCH 193 195
ENDBRANCH 192 193
ENDBRANCH  97 192
ENDBRANCH   1  97
BRANCH   1 205
ATOM    205  O   UNL     1     -14.930   9.986  25.919  0.00  0.00    +0.000 OA
BRANCH 205 206
ATOM    206  C   UNL     1     -16.001   9.181  25.482  0.00  0.00    +0.000 C 
BRANCH 206 207
ATOM    207  C   UNL     1     -17.078   9.073  26.523  0.00  0.00    +0.000 C 
BRANCH 207 208
ATOM    208  O   UNL     1     -16.526   9.089  27.845  0.00  0.00    +0.000 OA
BRANCH 208 209
ATOM    209  C   UNL     1     -17.498   8.801  28.874  0.00  0.00    +0.000 C 
BRANCH 209 210
ATOM    210  C   UNL     1     -18.670   8.045  28.300  0.00  0.00    +0.000 C 
BRANCH 210 211
ATOM    211  C   UNL     1     -19.872   7.991  29.244  0.00  0.00    +0.000 C 
BRANCH 211 212
ATOM    212  C   UNL     1     -20.388   6.578  29.397  0.00  0.00    +0.000 C 
BRANCH 212 213
ATOM    213  C   UNL     1     -21.836   6.495  29.045  0.00  0.00    +0.000 C 
BRANCH 213 214
ATOM    214  O   UNL     1     -22.210   5.233  28.736  0.00  0.00    +0.000 OA
BRANCH 214 215
ATOM    215  C   UNL     1     -21.527   4.243  29.554  0.00  0.00    +0.000 C 
BRANCH 215 216
ATOM    216  C   UNL     1     -21.842   2.823  29.131  0.00  0.00    +0.000 C 
BRANCH 216 217
ATOM    217  O   UNL     1     -22.509   2.175  30.119  0.00  0.00    +0.000 OA
BRANCH 217 218
ATOM    218  C   UNL     1     -23.926   1.740  30.288  0.00  0.00    +0.000 C 
BRANCH 218 219
ATOM    219  C   UNL     1     -24.446   1.454  28.839  0.00  0.00    +0.000 C 
BRANCH 219 220
ATOM    220  O   UNL     1     -25.341   2.425  28.443  0.00  0.00    +0.000 OA
BRANCH 220 221
ATOM    221  C   UNL     1     -26.534   1.964  27.784  0.00  0.00    +0.000 C 
BRANCH 221 222
ATOM    222  C   UNL     1     -26.727   2.755  26.493  0.00  0.00    +0.000 C 
BRANCH 222 223
ATOM    223  O   UNL     1     -25.835   2.336  25.491  0.00  0.00    +0.000 OA
BRANCH 223 224
ATOM    224  C   UNL     1     -26.301   2.546  24.171  0.00  0.00    +0.000 C 
BRANCH 224 225
ATOM    225  C   UNL     1     -25.238   1.993  23.216  0.00  0.00    +0.000 C 
BRANCH 225 226
ATOM    226  O   UNL     1     -24.096   1.539  23.937  0.00  0.00    +0.000 OA
BRANCH 226 227
ATOM    227  C   UNL     1     -23.076   1.024  23.100  0.00  0.00    +0.000 C 
BRANCH 227 228
ATOM    228  C   UNL     1     -23.294  -0.459  22.936  0.00  0.00    +0.000 C 
BRANCH 228 229
ATOM    229  O   UNL     1     -23.207  -0.868  21.599  0.00  0.00    +0.000 OA
BRANCH 229 230
ATOM    230  C   UNL     1     -24.423  -0.742  20.912  0.00  0.00    +0.000 C 
BRANCH 230 231
ATOM    231  C   UNL     1     -25.333  -1.887  21.239  0.00  0.00    +0.000 C 
BRANCH 231 232
ATOM    232  O   UNL     1     -24.591  -3.081  21.230  0.00  0.00    +0.000 OA
BRANCH 232 233
ATOM    233  C   UNL     1     -25.132  -4.082  22.062  0.00  0.00    +0.000 C 
BRANCH 233 234
ATOM    234  C   UNL     1     -24.028  -4.948  22.627  0.00  0.00    +0.000 C 
ATOM    235  O   UNL     1     -23.006  -4.118  23.132  0.00  0.00    +0.000 OA
ENDBRANCH 233 234
ENDBRANCH 232 233
ENDBRANCH 231 232
ENDBRANCH 230 231
ENDBRANCH 229 230
ENDBRANCH 228 229
ENDBRANCH 227 228
ENDBRANCH 226 227
ENDBRANCH 225 226
ENDBRANCH 224 225
ENDBRANCH 223 224
ENDBRANCH 222 223
ENDBRANCH 221 222
ENDBRANCH 220 221
ENDBRANCH 219 220
ENDBRANCH 218 219
ENDBRANCH 217 218
ENDBRANCH 216 217
ENDBRANCH 215 216
ENDBRANCH 214 215
ENDBRANCH 213 214
ENDBRANCH 212 213
ENDBRANCH 211 212
ENDBRANCH 210 211
ENDBRANCH 209 210
ENDBRANCH 208 209
ENDBRANCH 207 208
ENDBRANCH 206 207
ENDBRANCH 205 206
ENDBRANCH   1 205
TORSDOF 175
ENDMDL
MODEL 3
REMARK VINA RESULT:      -4.6      2.371      6.066
REMARK  Name = human_CD1d_Tyloxapol_pred.rank_0
REMARK  175 active torsions:
REMARK  status: ('A' for Active; 'I' for Inactive)
REMARK    1  A    between atoms: C_1  and  C_3
REMARK    2  A    between atoms: C_3  and  O_4
REMARK    3  A    between atoms: O_4  and  C_5
REMARK    4  A    between atoms: C_5  and  C_7
REMARK    5  A    between atoms: O_6  and  C_7
REMARK    6  A    between atoms: O_6  and  C_9
REMARK    7  A    between atoms: O_8  and  C_11
REMARK    8  A    between atoms: O_8  and  C_13
REMARK    9  A    between atoms: C_9  and  C_11
REMARK   10  A    between atoms: O_10  and  C_15
REMARK   11  A    between atoms: O_10  and  C_17
REMARK   12  A    between atoms: O_12  and  C_19
REMARK   13  A    between atoms: O_12  and  C_21
REMARK   14  A    between atoms: C_13  and  C_15
REMARK   15  A    between atoms: O_14  and  C_23
REMARK   16  A    between atoms: O_14  and  C_25
REMARK   17  A    between atoms: O_16  and  C_27
REMARK   18  A    between atoms: O_16  and  C_29
REMARK   19  A    between atoms: C_17  and  C_19
REMARK   20  A    between atoms: O_18  and  C_37
REMARK   21  A    between atoms: O_18  and  C_39
REMARK   22  A    between atoms: O_20  and  C_41
REMARK   23  A    between atoms: O_20  and  C_43
REMARK   24  A    between atoms: C_21  and  C_23
REMARK   25  A    between atoms: O_22  and  C_49
REMARK   26  A    between atoms: O_22  and  C_51
REMARK   27  A    between atoms: O_24  and  C_53
REMARK   28  A    between atoms: O_24  and  C_55
REMARK   29  A    between atoms: C_25  and  C_27
REMARK   30  A    between atoms: O_26  and  C_57
REMARK   31  A    between atoms: O_26  and  C_59
REMARK   32  A    between atoms: O_28  and  C_61
REMARK   33  A    between atoms: O_28  and  C_63
REMARK   34  A    between atoms: C_29  and  C_31
REMARK   35  A    between atoms: O_30  and  C_65
REMARK   36  A    between atoms: O_30  and  C_67
REMARK   37  A    between atoms: C_31  and  C_33
REMARK   38  A    between atoms: O_32  and  C_69
REMARK   39  A    between atoms: O_32  and  C_71
REMARK   40  A    between atoms: C_33  and  C_35
REMARK   41  A    between atoms: O_34  and  C_73
REMARK   42  A    between atoms: O_34  and  C_75
REMARK   43  A    between atoms: C_35  and  C_37
REMARK   44  A    between atoms: O_36  and  C_77
REMARK   45  A    between atoms: O_36  and  C_79
REMARK   46  A    between atoms: O_38  and  C_81
REMARK   47  A    between atoms: O_38  and  C_83
REMARK   48  A    between atoms: C_39  and  C_41
REMARK   49  A    between atoms: O_40  and  C_85
REMARK   50  A    between atoms: O_40  and  C_87
REMARK   51  A    between atoms: C_43  and  C_45
REMARK   52  A    between atoms: C_43  and  C_163
REMARK   53  A    between atoms: O_44  and  C_116
REMARK   54  A    between atoms: O_44  and  C_117
REMARK   55  A    between atoms: C_45  and  C_47
REMARK   56  A    between atoms: C_45  and  C_150
REMARK   57  A    between atoms: O_46  and  C_118
REMARK   58  A    between atoms: O_46  and  C_119
REMARK   59  A    between atoms: O_48  and  C_120
REMARK   60  A    between atoms: O_48  and  C_121
REMARK   61  A    between atoms: O_50  and  C_122
REMARK   62  A    between atoms: O_50  and  C_123
REMARK   63  A    between atoms: C_51  and  C_53
REMARK   64  A    between atoms: O_52  and  C_124
REMARK   65  A    between atoms: O_52  and  C_125
REMARK   66  A    between atoms: O_54  and  C_126
REMARK   67  A    between atoms: O_54  and  C_127
REMARK   68  A    between atoms: C_55  and  C_57
REMARK   69  A    between atoms: O_56  and  C_128
REMARK   70  A    between atoms: O_56  and  C_129
REMARK   71  A    between atoms: O_58  and  C_130
REMARK   72  A    between atoms: O_58  and  C_131
REMARK   73  A    between atoms: C_59  and  C_61
REMARK   74  A    between atoms: O_60  and  C_132
REMARK   75  A    between atoms: O_60  and  C_133
REMARK   76  A    between atoms: O_62  and  C_134
REMARK   77  A    between atoms: O_62  and  C_135
REMARK   78  A    between atoms: C_63  and  C_65
REMARK   79  A    between atoms: O_66  and  C_180
REMARK   80  A    between atoms: O_66  and  C_181
REMARK   81  A    between atoms: C_67  and  C_69
REMARK   82  A    between atoms: O_68  and  C_182
REMARK   83  A    between atoms: O_68  and  C_183
REMARK   84  A    between atoms: O_70  and  C_184
REMARK   85  A    between atoms: O_70  and  C_185
REMARK   86  A    between atoms: C_71  and  C_73
REMARK   87  A    between atoms: O_72  and  C_186
REMARK   88  A    between atoms: O_72  and  C_187
REMARK   89  A    between atoms: O_74  and  C_188
REMARK   90  A    between atoms: O_74  and  C_189
REMARK   91  A    between atoms: C_75  and  C_77
REMARK   92  A    between atoms: O_76  and  C_190
REMARK   93  A    between atoms: O_76  and  C_191
REMARK   94  A    between atoms: O_78  and  C_192
REMARK   95  A    between atoms: O_78  and  C_193
REMARK   96  A    between atoms: C_79  and  C_81
REMARK   97  A    between atoms: O_80  and  C_194
REMARK   98  A    between atoms: O_80  and  C_195
REMARK   99  A    between atoms: O_82  and  C_196
REMARK  100  A    between atoms: O_82  and  C_197
REMARK  101  A    between atoms: C_83  and  C_85
REMARK  102  A    between atoms: O_84  and  C_198
REMARK  103  A    between atoms: O_84  and  C_199
REMARK  104  A    between atoms: C_87  and  C_89
REMARK  105  A    between atoms: O_88  and  C_215
REMARK  106  A    between atoms: O_88  and  C_216
REMARK  107  A    between atoms: O_90  and  C_217
REMARK  108  A    between atoms: O_90  and  C_218
REMARK  109  A    between atoms: O_92  and  C_219
REMARK  110  A    between atoms: O_92  and  C_220
REMARK  111  A    between atoms: O_94  and  C_221
REMARK  112  A    between atoms: O_94  and  C_222
REMARK  113  A    between atoms: O_96  and  C_223
REMARK  114  A    between atoms: O_96  and  C_224
REMARK  115  A    between atoms: C_97  and  C_99
REMARK  116  A    between atoms: O_98  and  C_225
REMARK  117  A    between atoms: O_98  and  C_226
REMARK  118  A    between atoms: C_99  and  C_105
REMARK  119  A    between atoms: O_100  and  C_227
REMARK  120  A    between atoms: O_100  and  C_228
REMARK  121  A    between atoms: O_102  and  C_229
REMARK  122  A    between atoms: O_102  and  C_230
REMARK  123  A    between atoms: O_104  and  C_231
REMARK  124  A    between atoms: O_104  and  C_232
REMARK  125  A    between atoms: C_105  and  C_107
REMARK  126  A    between atoms: O_106  and  C_233
REMARK  127  A    between atoms: O_106  and  C_234
REMARK  128  A    between atoms: C_117  and  C_118
REMARK  129  A    between atoms: C_119  and  C_120
REMARK  130  A    between atoms: C_121  and  C_122
REMARK  131  A    between atoms: C_123  and  C_124
REMARK  132  A    between atoms: C_125  and  C_126
REMARK  133  A    between atoms: C_127  and  C_128
REMARK  134  A    between atoms: C_129  and  C_130
REMARK  135  A    between atoms: C_131  and  C_132
REMARK  136  A    between atoms: C_133  and  C_134
REMARK  137  A    between atoms: C_135  and  C_136
REMARK  138  A    between atoms: C_138  and  C_139
REMARK  139  A    between atoms: C_139  and  C_142
REMARK  140  A    between atoms: C_142  and  C_145
REMARK  141  A    between atoms: C_150  and  C_151
REMARK  142  A    between atoms: C_151  and  C_152
REMARK  143  A    between atoms: C_152  and  C_155
REMARK  144  A    between atoms: C_155  and  C_158
REMARK  145  A    between atoms: C_163  and  C_164
REMARK  146  A    between atoms: C_166  and  C_167
REMARK  147  A    between atoms: C_167  and  C_168
REMARK  148  A    between atoms: C_168  and  C_171
REMARK  149  A    between atoms: C_178  and  C_179
REMARK  150  A    between atoms: C_179  and  C_180
REMARK  151  A    between atoms: C_179  and  C_214
REMARK  152  A    between atoms: C_181  and  C_182
REMARK  153  A    between atoms: C_183  and  C_184
REMARK  154  A    between atoms: C_185  and  C_186
REMARK  155  A    between atoms: C_187  and  C_188
REMARK  156  A    between atoms: C_189  and  C_190
REMARK  157  A    between atoms: C_191  and  C_192
REMARK  158  A    between atoms: C_193  and  C_194
REMARK  159  A    between atoms: C_195  and  C_196
REMARK  160  A    between atoms: C_197  and  C_198
REMARK  161  A    between atoms: C_199  and  C_200
REMARK  162  A    between atoms: C_203  and  C_204
REMARK  163  A    between atoms: C_203  and  C_214
REMARK  164  A    between atoms: C_204  and  C_207
REMARK  165  A    between atoms: C_207  and  C_210
REMARK  166  A    between atoms: C_216  and  C_217
REMARK  167  A    between atoms: C_218  and  C_219
REMARK  168  A    between atoms: C_220  and  C_221
REMARK  169  A    between atoms: C_222  and  C_223
REMARK  170  A    between atoms: C_224  and  C_225
REMARK  171  A    between atoms: C_226  and  C_227
REMARK  172  A    between atoms: C_228  and  C_229
REMARK  173  A    between atoms: C_230  and  C_231
REMARK  174  A    between atoms: C_232  and  C_233
REMARK  175  A    between atoms: C_234  and  C_235
REMARK                            x       y       z     vdW  Elec       q    Type
REMARK                         _______ _______ _______ _____ _____    ______ ____
ROOT
ATOM      1  C   UNL     1     -13.934  10.642  25.254  0.00  0.00    +0.000 C 
ENDROOT
BRANCH   1   2
ATOM      2  C   UNL     1     -12.853  10.111  26.795  0.00  0.00    +0.000 C 
BRANCH   2   3
ATOM      3  C   UNL     1     -12.449   8.611  26.973  0.00  0.00    +0.000 C 
ATOM      4  C   UNL     1     -11.507   8.377  28.314  0.00  0.00    +0.000 C 
ATOM      5  C   UNL     1     -10.023   8.381  27.976  0.00  0.00    +0.000 C 
ATOM      6  C   UNL     1      -9.718   6.968  26.996  0.00  0.00    +0.000 C 
ATOM      7  C   UNL     1     -10.045   6.980  25.558  0.00  0.00    +0.000 C 
ATOM      8  C   UNL     1     -11.665   7.647  25.350  0.00  0.00    +0.000 C 
BRANCH   5   9
ATOM      9  C   UNL     1      -9.099   8.440  29.313  0.00  0.00    +0.000 C 
ATOM     10  C   UNL     1      -9.820   8.554  30.286  0.00  0.00    +0.000 C 
ATOM     11  C   UNL     1      -8.124   7.186  29.225  0.00  0.00    +0.000 C 
BRANCH   9  12
ATOM     12  C   UNL     1      -8.035   9.693  29.298  0.00  0.00    +0.000 C 
ATOM     13  C   UNL     1      -7.046   9.567  28.111  0.00  0.00    +0.000 C 
ATOM     14  C   UNL     1      -6.873   9.514  30.534  0.00  0.00    +0.000 C 
BRANCH  12  15
ATOM     15  C   UNL     1      -8.490  11.091  29.575  0.00  0.00    +0.000 C 
ATOM     16  C   UNL     1      -7.563  11.815  28.609  0.00  0.00    +0.000 C 
ATOM     17  C   UNL     1      -8.199  11.644  30.912  0.00  0.00    +0.000 C 
ATOM     18  C   UNL     1      -9.917  11.303  29.293  0.00  0.00    +0.000 C 
ENDBRANCH  12  15
ENDBRANCH   9  12
ENDBRANCH   5   9
BRANCH   7  19
ATOM     19  C   UNL     1      -9.392   5.833  24.675  0.00  0.00    +0.000 C 
BRANCH  19  20
ATOM     20  C   UNL     1     -10.383   4.661  24.338  0.00  0.00    +0.000 C 
ATOM     21  C   UNL     1     -11.488   4.461  25.451  0.00  0.00    +0.000 C 
BRANCH  20  22
ATOM     22  O   UNL     1     -11.168   5.027  23.144  0.00  0.00    +0.000 OA
BRANCH  22  23
ATOM     23  C   UNL     1     -11.098   4.120  22.079  0.00  0.00    +0.000 C 
BRANCH  23  24
ATOM     24  C   UNL     1     -11.288   4.844  20.753  0.00  0.00    +0.000 C 
BRANCH  24  25
ATOM     25  O   UNL     1     -12.372   4.287  20.085  0.00  0.00    +0.000 OA
BRANCH  25  26
ATOM     26  C   UNL     1     -11.996   3.562  18.924  0.00  0.00    +0.000 C 
BRANCH  26  27
ATOM     27  C   UNL     1     -13.133   3.412  18.008  0.00  0.00    +0.000 C 
BRANCH  27  28
ATOM     28  O   UNL     1     -13.566   4.660  17.609  0.00  0.00    +0.000 OA
BRANCH  28  29
ATOM     29  C   UNL     1     -14.165   4.695  16.330  0.00  0.00    +0.000 C 
BRANCH  29  30
ATOM     30  C   UNL     1     -13.109   4.425  15.284  0.00  0.00    +0.000 C 
BRANCH  30  31
ATOM     31  O   UNL     1     -13.512   3.313  14.546  0.00  0.00    +0.000 OA
BRANCH  31  32
ATOM     32  C   UNL     1     -12.397   2.711  13.864  0.00  0.00    +0.000 C 
BRANCH  32  33
ATOM     33  C   UNL     1     -11.168   2.829  14.780  0.00  0.00    +0.000 C 
BRANCH  33  34
ATOM     34  O   UNL     1     -10.027   2.625  14.011  0.00  0.00    +0.000 OA
BRANCH  34  35
ATOM     35  C   UNL     1     -10.047   3.299  12.736  0.00  0.00    +0.000 C 
BRANCH  35  36
ATOM     36  C   UNL     1      -9.445   4.670  12.812  0.00  0.00    +0.000 C 
BRANCH  36  37
ATOM     37  O   UNL     1      -9.944   5.411  11.660  0.00  0.00    +0.000 OA
BRANCH  37  38
ATOM     38  C   UNL     1      -9.889   4.618  10.501  0.00  0.00    +0.000 C 
BRANCH  38  39
ATOM     39  C   UNL     1      -9.156   5.244   9.384  0.00  0.00    +0.000 C 
BRANCH  39  40
ATOM     40  O   UNL     1      -9.402   4.415   8.153  0.00  0.00    +0.000 OA
BRANCH  40  41
ATOM     41  C   UNL     1     -10.750   4.019   8.039  0.00  0.00    +0.000 C 
BRANCH  41  42
ATOM     42  C   UNL     1     -11.409   4.655   6.865  0.00  0.00    +0.000 C 
BRANCH  42  43
ATOM     43  O   UNL     1     -12.538   3.966   6.500  0.00  0.00    +0.000 OA
BRANCH  43  44
ATOM     44  C   UNL     1     -13.311   3.445   7.543  0.00  0.00    +0.000 C 
BRANCH  44  45
ATOM     45  C   UNL     1     -14.763   3.704   7.348  0.00  0.00    +0.000 C 
BRANCH  45  46
ATOM     46  O   UNL     1     -15.475   2.567   7.846  0.00  0.00    +0.000 OA
BRANCH  46  47
ATOM     47  C   UNL     1     -14.574   1.711   8.528  0.00  0.00    +0.000 C 
BRANCH  47  48
ATOM     48  C   UNL     1     -15.387   0.448   9.036  0.00  0.00    +0.000 C 
BRANCH  48  49
ATOM     49  O   UNL     1     -15.799   0.661  10.341  0.00  0.00    +0.000 OA
BRANCH  49  50
ATOM     50  C   UNL     1     -16.822  -0.159  10.796  0.00  0.00    +0.000 C 
BRANCH  50  52
ATOM     51  O   UNL     1     -15.813   0.549  12.837  0.00  0.00    +0.000 OA
ATOM     52  C   UNL     1     -16.561  -0.542  12.267  0.00  0.00    +0.000 C 
ENDBRANCH  50  52
ENDBRANCH  49  50
ENDBRANCH  48  49
ENDBRANCH  47  48
ENDBRANCH  46  47
ENDBRANCH  45  46
ENDBRANCH  44  45
ENDBRANCH  43  44
ENDBRANCH  42  43
ENDBRANCH  41  42
ENDBRANCH  40  41
ENDBRANCH  39  40
ENDBRANCH  38  39
ENDBRANCH  37  38
ENDBRANCH  36  37
ENDBRANCH  35  36
ENDBRANCH  34  35
ENDBRANCH  33  34
ENDBRANCH  32  33
ENDBRANCH  31  32
ENDBRANCH  30  31
ENDBRANCH  29  30
ENDBRANCH  28  29
ENDBRANCH  27  28
ENDBRANCH  26  27
ENDBRANCH  25  26
ENDBRANCH  24  25
ENDBRANCH  23  24
ENDBRANCH  22  23
ENDBRANCH  20  22
ENDBRANCH  19  20
BRANCH  19  53
ATOM     53  C   UNL     1      -8.767   6.262  23.247  0.00  0.00    +0.000 C 
BRANCH  53  55
ATOM     54  C   UNL     1      -7.671   5.401  21.327  0.00  0.00    +0.000 C 
ATOM     55  C   UNL     1      -7.580   6.012  22.678  0.00  0.00    +0.000 C 
BRANCH  55  56
ATOM     56  C   UNL     1      -6.219   6.302  23.308  0.00  0.00    +0.000 C 
ATOM     57  C   UNL     1      -5.649   7.339  22.401  0.00  0.00    +0.000 C 
ATOM     58  C   UNL     1      -6.424   6.939  24.653  0.00  0.00    +0.000 C 
BRANCH  56  59
ATOM     59  C   UNL     1      -5.343   5.016  23.401  0.00  0.00    +0.000 C 
ATOM     60  C   UNL     1      -6.118   3.784  23.136  0.00  0.00    +0.000 C 
ATOM     61  C   UNL     1      -4.762   4.957  24.834  0.00  0.00    +0.000 C 
BRANCH  59  62
ATOM     62  C   UNL     1      -4.085   5.011  22.417  0.00  0.00    +0.000 C 
ATOM     63  C   UNL     1      -3.708   6.396  22.030  0.00  0.00    +0.000 C 
ATOM     64  C   UNL     1      -4.451   4.311  21.131  0.00  0.00    +0.000 C 
ATOM     65  C   UNL     1      -2.935   4.288  22.929  0.00  0.00    +0.000 C 
ENDBRANCH  59  62
ENDBRANCH  56  59
ENDBRANCH  55  56
ENDBRANCH  53  55
ENDBRANCH  19  53
ENDBRANCH   7  19
BRANCH   8  66
ATOM     66  O   UNL     1     -12.442   7.589  24.229  0.00  0.00    +0.000 OA
BRANCH  66  67
ATOM     67  C   UNL     1     -12.019   8.384  23.146  0.00  0.00    +0.000 C 
BRANCH  67  68
ATOM     68  C   UNL     1     -12.866   8.326  21.855  0.00  0.00    +0.000 C 
BRANCH  68  69
ATOM     69  O   UNL     1     -14.080   7.687  22.140  0.00  0.00    +0.000 OA
BRANCH  69  70
ATOM     70  C   UNL     1     -15.176   8.146  21.284  0.00  0.00    +0.000 C 
BRANCH  70  71
ATOM     71  C   UNL     1     -14.658   9.043  20.173  0.00  0.00    +0.000 C 
BRANCH  71  72
ATOM     72  O   UNL     1     -15.854   9.564  19.354  0.00  0.00    +0.000 OA
BRANCH  72  73
ATOM     73  C   UNL     1     -16.743   8.505  19.026  0.00  0.00    +0.000 C 
BRANCH  73  74
ATOM     74  C   UNL     1     -18.186   9.002  19.189  0.00  0.00    +0.000 C 
BRANCH  74  75
ATOM     75  O   UNL     1     -19.044   8.346  18.310  0.00  0.00    +0.000 OA
BRANCH  75  76
ATOM     76  C   UNL     1     -20.184   9.133  17.939  0.00  0.00    +0.000 C 
BRANCH  76  77
ATOM     77  C   UNL     1     -21.477   8.443  18.280  0.00  0.00    +0.000 C 
BRANCH  77  78
ATOM     78  O   UNL     1     -22.287   8.593  17.123  0.00  0.00    +0.000 OA
BRANCH  78  79
ATOM     79  C   UNL     1     -23.355   9.586  17.282  0.00  0.00    +0.000 C 
BRANCH  79  80
ATOM     80  C   UNL     1     -24.569   8.841  17.687  0.00  0.00    +0.000 C 
BRANCH  80  81
ATOM     81  O   UNL     1     -25.549   8.751  16.619  0.00  0.00    +0.000 OA
BRANCH  81  82
ATOM     82  C   UNL     1     -25.076   9.187  15.385  0.00  0.00    +0.000 C 
BRANCH  82  83
ATOM     83  C   UNL     1     -26.244   9.649  14.492  0.00  0.00    +0.000 C 
BRANCH  83  84
ATOM     84  O   UNL     1     -25.757  10.273  13.328  0.00  0.00    +0.000 OA
BRANCH  84  85
ATOM     85  C   UNL     1     -24.589  10.922  13.410  0.00  0.00    +0.000 C 
BRANCH  85  86
ATOM     86  C   UNL     1     -24.819  12.422  13.689  0.00  0.00    +0.000 C 
BRANCH  86  87
ATOM     87  O   UNL     1     -25.261  13.132  12.561  0.00  0.00    +0.000 OA
BRANCH  87  88
ATOM     88  C   UNL     1     -24.341  13.188  11.527  0.00  0.00    +0.000 C 
BRANCH  88  89
ATOM     89  C   UNL     1     -23.317  14.287  11.759  0.00  0.00    +0.000 C 
BRANCH  89  90
ATOM     90  O   UNL     1     -23.694  15.448  11.027  0.00  0.00    +0.000 OA
BRANCH  90  91
ATOM     91  C   UNL     1     -22.767  16.512  11.332  0.00  0.00    +0.000 C 
BRANCH  91  92
ATOM     92  C   UNL     1     -23.208  17.143  12.629  0.00  0.00    +0.000 C 
BRANCH  92  93
ATOM     93  O   UNL     1     -22.046  17.534  13.356  0.00  0.00    +0.000 OA
BRANCH  93  94
ATOM     94  C   UNL     1     -20.876  17.365  12.653  0.00  0.00    +0.000 C 
BRANCH  94  96
ATOM     95  O   UNL     1     -19.903  18.387  14.599  0.00  0.00    +0.000 OA
ATOM     96  C   UNL     1     -19.666  17.440  13.590  0.00  0.00    +0.000 C 
ENDBRANCH  94  96
ENDBRANCH  93  94
ENDBRANCH  92  93
ENDBRANCH  91  92
ENDBRANCH  90  91
ENDBRANCH  89  90
ENDBRANCH  88  89
ENDBRANCH  87  88
ENDBRANCH  86  87
ENDBRANCH  85  86
ENDBRANCH  84  85
ENDBRANCH  83  84
ENDBRANCH  82  83
ENDBRANCH  81  82
ENDBRANCH  80  81
ENDBRANCH  79  80
ENDBRANCH  78  79
ENDBRANCH  77  78
ENDBRANCH  76  77
ENDBRANCH  75  76
ENDBRANCH  74  75
ENDBRANCH  73  74
ENDBRANCH  72  73
ENDBRANCH  71  72
ENDBRANCH  70  71
ENDBRANCH  69  70
ENDBRANCH  68  69
ENDBRANCH  67  68
ENDBRANCH  66  67
ENDBRANCH   8  66
ENDBRANCH   2   3
ENDBRANCH   1   2
BRANCH   1  97
ATOM     97  C   UNL     1     -14.056  12.033  24.662  0.00  0.00    +0.000 C 
BRANCH  97  98
ATOM     98  C   UNL     1     -15.591  12.537  24.589  0.00  0.00    +0.000 C 
ATOM     99  C   UNL     1     -16.035  13.272  25.889  0.00  0.00    +0.000 C 
ATOM    100  C   UNL     1     -17.534  13.809  25.930  0.00  0.00    +0.000 C 
ATOM    101  C   UNL     1     -18.702  14.455  26.534  0.00  0.00    +0.000 C 
ATOM    102  C   UNL     1     -20.145  14.038  26.367  0.00  0.00    +0.000 C 
ATOM    103  C   UNL     1     -21.218  14.722  27.058  0.00  0.00    +0.000 C 
ATOM    104  C   UNL     1     -20.829  15.770  27.962  0.00  0.00    +0.000 C 
ATOM    105  C   UNL     1     -19.530  16.248  28.091  0.00  0.00    +0.000 C 
ATOM    106  C   UNL     1     -18.610  15.570  27.350  0.00  0.00    +0.000 C 
ATOM    107  C   UNL     1     -17.981  13.371  25.369  0.00  0.00    +0.000 C 
ATOM    108  C   UNL     1     -17.864  12.850  24.128  0.00  0.00    +0.000 C 
ATOM    109  C   UNL     1     -16.480  12.686  23.483  0.00  0.00    +0.000 C 
BRANCH 103 110
ATOM    110  C   UNL     1     -22.663  14.327  26.769  0.00  0.00    +0.000 C 
ATOM    111  C   UNL     1     -23.407  15.689  26.656  0.00  0.00    +0.000 C 
ATOM    112  C   UNL     1     -22.749  13.738  25.438  0.00  0.00    +0.000 C 
BRANCH 110 113
ATOM    113  C   UNL     1     -23.464  13.436  27.746  0.00  0.00    +0.000 C 
ATOM    114  C   UNL     1     -23.307  14.050  29.101  0.00  0.00    +0.000 C 
ATOM    115  C   UNL     1     -24.935  13.426  27.321  0.00  0.00    +0.000 C 
BRANCH 113 116
ATOM    116  C   UNL     1     -23.024  11.904  27.775  0.00  0.00    +0.000 C 
ATOM    117  C   UNL     1     -22.906  11.345  26.371  0.00  0.00    +0.000 C 
ATOM    118  C   UNL     1     -24.080  11.069  28.408  0.00  0.00    +0.000 C 
ATOM    119  C   UNL     1     -21.745  11.724  28.544  0.00  0.00    +0.000 C 
ENDBRANCH 113 116
ENDBRANCH 110 113
ENDBRANCH 103 110
BRANCH 108 120
ATOM    120  C   UNL     1     -19.019  11.901  23.635  0.00  0.00    +0.000 C 
ATOM    121  C   UNL     1     -19.725  11.378  24.897  0.00  0.00    +0.000 C 
ATOM    122  C   UNL     1     -18.370  10.710  23.027  0.00  0.00    +0.000 C 
BRANCH 120 123
ATOM    123  C   UNL     1     -20.230  12.563  22.770  0.00  0.00    +0.000 C 
ATOM    124  C   UNL     1     -21.558  12.310  23.331  0.00  0.00    +0.000 C 
ATOM    125  C   UNL     1     -20.096  14.065  22.731  0.00  0.00    +0.000 C 
BRANCH 123 126
ATOM    126  C   UNL     1     -20.346  12.028  21.301  0.00  0.00    +0.000 C 
ATOM    127  C   UNL     1     -18.996  12.084  20.677  0.00  0.00    +0.000 C 
ATOM    128  C   UNL     1     -21.215  12.929  20.466  0.00  0.00    +0.000 C 
ATOM    129  C   UNL     1     -20.974  10.686  21.279  0.00  0.00    +0.000 C 
ENDBRANCH 123 126
ENDBRANCH 120 123
ENDBRANCH 108 120
BRANCH 106 130
ATOM    130  O   UNL     1     -17.346  16.104  27.246  0.00  0.00    +0.000 OA
BRANCH 130 131
ATOM    131  C   UNL     1     -16.649  16.523  28.444  0.00  0.00    +0.000 C 
BRANCH 131 132
ATOM    132  C   UNL     1     -15.999  17.859  28.139  0.00  0.00    +0.000 C 
BRANCH 132 133
ATOM    133  O   UNL     1     -16.618  18.455  27.052  0.00  0.00    +0.000 OA
BRANCH 133 134
ATOM    134  C   UNL     1     -17.420  19.570  27.406  0.00  0.00    +0.000 C 
BRANCH 134 135
ATOM    135  C   UNL     1     -18.661  19.577  26.582  0.00  0.00    +0.000 C 
BRANCH 135 136
ATOM    136  O   UNL     1     -18.425  18.897  25.690  0.00  0.00    +0.000 OA
BRANCH 136 137
ATOM    137  C   UNL     1     -19.559  18.399  25.072  0.00  0.00    +0.000 C 
BRANCH 137 138
ATOM    138  C   UNL     1     -19.250  17.300  23.998  0.00  0.00    +0.000 C 
BRANCH 138 139
ATOM    139  O   UNL     1     -17.954  16.940  24.149  0.00  0.00    +0.000 OA
BRANCH 139 140
ATOM    140  C   UNL     1     -17.302  16.670  22.889  0.00  0.00    +0.000 C 
BRANCH 140 141
ATOM    141  C   UNL     1     -17.414  17.875  22.009  0.00  0.00    +0.000 C 
BRANCH 141 142
ATOM    142  O   UNL     1     -16.558  17.736  20.897  0.00  0.00    +0.000 OA
BRANCH 142 143
ATOM    143  C   UNL     1     -16.964  16.708  19.998  0.00  0.00    +0.000 C 
BRANCH 143 144
ATOM    144  C   UNL     1     -15.823  16.415  18.987  0.00  0.00    +0.000 C 
BRANCH 144 145
ATOM    145  O   UNL     1     -15.360  17.617  18.348  0.00  0.00    +0.000 OA
BRANCH 145 146
ATOM    146  C   UNL     1     -15.440  17.713  16.918  0.00  0.00    +0.000 C 
BRANCH 146 147
ATOM    147  C   UNL     1     -14.339  18.565  16.338  0.00  0.00    +0.000 C 
BRANCH 147 148
ATOM    148  O   UNL     1     -14.932  19.454  15.373  0.00  0.00    +0.000 OA
BRANCH 148 149
ATOM    149  C   UNL     1     -16.289  19.188  15.058  0.00  0.00    +0.000 C 
BRANCH 149 150
ATOM    150  C   UNL     1     -16.503  19.317  13.564  0.00  0.00    +0.000 C 
BRANCH 150 151
ATOM    151  O   UNL     1     -15.825  18.232  12.916  0.00  0.00    +0.000 OA
BRANCH 151 152
ATOM    152  C   UNL     1     -14.945  18.575  11.903  0.00  0.00    +0.000 C 
BRANCH 152 153
ATOM    153  C   UNL     1     -13.675  17.747  11.963  0.00  0.00    +0.000 C 
BRANCH 153 154
ATOM    154  O   UNL     1     -13.589  17.106  13.235  0.00  0.00    +0.000 OA
BRANCH 154 155
ATOM    155  C   UNL     1     -12.447  16.316  13.404  0.00  0.00    +0.000 C 
BRANCH 155 156
ATOM    156  C   UNL     1     -11.363  17.102  14.184  0.00  0.00    +0.000 C 
BRANCH 156 157
ATOM    157  O   UNL     1     -10.164  17.059  13.404  0.00  0.00    +0.000 OA
BRANCH 157 158
ATOM    158  C   UNL     1      -9.710  18.332  13.028  0.00  0.00    +0.000 C 
BRANCH 158 160
ATOM    159  O   UNL     1      -7.835  16.720  12.983  0.00  0.00    +0.000 OA
ATOM    160  C   UNL     1      -8.309  18.138  12.646  0.00  0.00    +0.000 C 
ENDBRANCH 158 160
ENDBRANCH 157 158
ENDBRANCH 156 157
ENDBRANCH 155 156
ENDBRANCH 154 155
ENDBRANCH 153 154
ENDBRANCH 152 153
ENDBRANCH 151 152
ENDBRANCH 150 151
ENDBRANCH 149 150
ENDBRANCH 148 149
ENDBRANCH 147 148
ENDBRANCH 146 147
ENDBRANCH 145 146
ENDBRANCH 144 145
ENDBRANCH 143 144
ENDBRANCH 142 143
ENDBRANCH 141 142
ENDBRANCH 140 141
ENDBRANCH 139 140
ENDBRANCH 138 139
ENDBRANCH 137 138
ENDBRANCH 136 137
ENDBRANCH 135 136
ENDBRANCH 134 135
ENDBRANCH 133 134
ENDBRANCH 132 133
ENDBRANCH 131 132
ENDBRANCH 130 131
ENDBRANCH 106 130
BRANCH  99 161
ATOM    161  O   UNL     1     -15.589  12.833  27.111  0.00  0.00    +0.000 OA
BRANCH 161 162
ATOM    162  C   UNL     1     -16.512  12.231  28.026  0.00  0.00    +0.000 C 
BRANCH 162 163
ATOM    163  C   UNL     1     -16.577  12.863  29.407  0.00  0.00    +0.000 C 
BRANCH 163 164
ATOM    164  O   UNL     1     -17.625  12.313  30.146  0.00  0.00    +0.000 OA
BRANCH 164 165
ATOM    165  C   UNL     1     -17.724  10.915  30.101  0.00  0.00    +0.000 C 
BRANCH 165 166
ATOM    166  C   UNL     1     -16.701  10.211  30.996  0.00  0.00    +0.000 C 
BRANCH 166 167
ATOM    167  O   UNL     1     -16.154   9.073  30.284  0.00  0.00    +0.000 OA
BRANCH 167 168
ATOM    168  C   UNL     1     -14.849   9.348  29.821  0.00  0.00    +0.000 C 
BRANCH 168 169
ATOM    169  C   UNL     1     -14.169  10.385  30.702  0.00  0.00    +0.000 C 
BRANCH 169 170
ATOM    170  O   UNL     1     -12.923   9.921  31.120  0.00  0.00    +0.000 OA
BRANCH 170 171
ATOM    171  C   UNL     1     -12.526  10.422  32.381  0.00  0.00    +0.000 C 
BRANCH 171 172
ATOM    172  C   UNL     1     -12.038   9.277  33.325  0.00  0.00    +0.000 C 
BRANCH 172 173
ATOM    173  O   UNL     1     -13.192   8.657  33.866  0.00  0.00    +0.000 OA
BRANCH 173 174
ATOM    174  C   UNL     1     -13.193   7.232  33.544  0.00  0.00    +0.000 C 
BRANCH 174 175
ATOM    175  C   UNL     1     -14.296   6.940  32.530  0.00  0.00    +0.000 C 
BRANCH 175 176
ATOM    176  O   UNL     1     -15.299   6.226  33.178  0.00  0.00    +0.000 OA
BRANCH 176 177
ATOM    177  C   UNL     1     -16.597   6.662  32.809  0.00  0.00    +0.000 C 
BRANCH 177 178
ATOM    178  C   UNL     1     -17.587   5.796  33.578  0.00  0.00    +0.000 C 
BRANCH 178 179
ATOM    179  O   UNL     1     -18.288   4.959  32.676  0.00  0.00    +0.000 OA
BRANCH 179 180
ATOM    180  C   UNL     1     -19.455   5.601  32.098  0.00  0.00    +0.000 C 
BRANCH 180 181
ATOM    181  C   UNL     1     -20.679   5.334  32.974  0.00  0.00    +0.000 C 
BRANCH 181 182
ATOM    182  O   UNL     1     -21.033   3.980  32.922  0.00  0.00    +0.000 OA
BRANCH 182 183
ATOM    183  C   UNL     1     -21.436   3.556  31.573  0.00  0.00    +0.000 C 
BRANCH 183 184
ATOM    184  C   UNL     1     -21.912   2.105  31.499  0.00  0.00    +0.000 C 
BRANCH 184 185
ATOM    185  O   UNL     1     -22.856   2.049  30.480  0.00  0.00    +0.000 OA
BRANCH 185 186
ATOM    186  C   UNL     1     -22.319   2.439  29.204  0.00  0.00    +0.000 C 
BRANCH 186 187
ATOM    187  C   UNL     1     -23.337   3.239  28.421  0.00  0.00    +0.000 C 
BRANCH 187 188
ATOM    188  O   UNL     1     -24.379   3.637  29.406  0.00  0.00    +0.000 OA
BRANCH 188 189
ATOM    189  C   UNL     1     -25.231   4.654  28.838  0.00  0.00    +0.000 C 
BRANCH 189 191
ATOM    190  O   UNL     1     -24.324   5.573  30.823  0.00  0.00    +0.000 OA
ATOM    191  C   UNL     1     -25.103   5.879  29.715  0.00  0.00    +0.000 C 
ENDBRANCH 189 191
ENDBRANCH 188 189
ENDBRANCH 187 188
ENDBRANCH 186 187
ENDBRANCH 185 186
ENDBRANCH 184 185
ENDBRANCH 183 184
ENDBRANCH 182 183
ENDBRANCH 181 182
ENDBRANCH 180 181
ENDBRANCH 179 180
ENDBRANCH 178 179
ENDBRANCH 177 178
ENDBRANCH 176 177
ENDBRANCH 175 176
ENDBRANCH 174 175
ENDBRANCH 173 174
ENDBRANCH 172 173
ENDBRANCH 171 172
ENDBRANCH 170 171
ENDBRANCH 169 170
ENDBRANCH 168 169
ENDBRANCH 167 168
ENDBRANCH 166 167
ENDBRANCH 165 166
ENDBRANCH 164 165
ENDBRANCH 163 164
ENDBRANCH 162 163
ENDBRANCH 161 162
ENDBRANCH  99 161
ENDBRANCH  97  98
BRANCH  97 192
ATOM    192  C   UNL     1     -12.847  12.543  25.228  0.00  0.00    +0.000 C 
BRANCH 192 193
ATOM    193  C   UNL     1     -12.491  13.928  25.408  0.00  0.00    +0.000 C 
ATOM    194  C   UNL     1     -12.254  14.812  24.277  0.00  0.00    +0.000 C 
BRANCH 193 195
ATOM    195  C   UNL     1     -12.325  14.523  26.748  0.00  0.00    +0.000 C 
ATOM    196  C   UNL     1     -13.281  15.725  26.818  0.00  0.00    +0.000 C 
ATOM    197  C   UNL     1     -12.764  13.551  27.852  0.00  0.00    +0.000 C 
BRANCH 195 198
ATOM    198  C   UNL     1     -10.793  14.982  26.975  0.00  0.00    +0.000 C 
ATOM    199  C   UNL     1      -9.950  14.653  25.823  0.00  0.00    +0.000 C 
ATOM    200  C   UNL     1     -10.234  14.345  28.205  0.00  0.00    +0.000 C 
BRANCH 198 201
ATOM    201  C   UNL     1     -10.501  16.508  27.233  0.00  0.00    +0.000 C 
ATOM    202  C   UNL     1     -11.039  17.402  26.157  0.00  0.00    +0.000 C 
ATOM    203  C   UNL     1      -9.027  16.810  27.291  0.00  0.00    +0.000 C 
ATOM    204  C   UNL     1     -11.179  16.949  28.441  0.00  0.00    +0.000 C 
ENDBRANCH 198 201
ENDBRANCH 195 198
ENDBRANCH 193 195
ENDBRANCH 192 193
ENDBRANCH  97 192
ENDBRANCH   1  97
BRANCH   1 205
ATOM    205  O   UNL     1     -15.157  10.202  25.809  0.00  0.00    +0.000 OA
BRANCH 205 206
ATOM    206  C   UNL     1     -15.783   9.186  25.060  0.00  0.00    +0.000 C 
BRANCH 206 207
ATOM    207  C   UNL     1     -17.111   8.801  25.644  0.00  0.00    +0.000 C 
BRANCH 207 208
ATOM    208  O   UNL     1     -17.045   8.710  27.072  0.00  0.00    +0.000 OA
BRANCH 208 209
ATOM    209  C   UNL     1     -18.253   8.190  27.669  0.00  0.00    +0.000 C 
BRANCH 209 210
ATOM    210  C   UNL     1     -19.466   8.657  26.905  0.00  0.00    +0.000 C 
BRANCH 210 211
ATOM    211  C   UNL     1     -20.783   8.171  27.511  0.00  0.00    +0.000 C 
BRANCH 211 212
ATOM    212  C   UNL     1     -21.897   8.181  26.487  0.00  0.00    +0.000 C 
BRANCH 212 213
ATOM    213  C   UNL     1     -23.030   7.311  26.920  0.00  0.00    +0.000 C 
BRANCH 213 214
ATOM    214  O   UNL     1     -24.223   7.789  26.499  0.00  0.00    +0.000 OA
BRANCH 214 215
ATOM    215  C   UNL     1     -25.049   6.752  25.900  0.00  0.00    +0.000 C 
BRANCH 215 216
ATOM    216  C   UNL     1     -24.876   6.669  24.398  0.00  0.00    +0.000 C 
BRANCH 216 217
ATOM    217  O   UNL     1     -25.191   5.426  23.956  0.00  0.00    +0.000 OA
BRANCH 217 218
ATOM    218  C   UNL     1     -26.394   4.555  24.108  0.00  0.00    +0.000 C 
BRANCH 218 219
ATOM    219  C   UNL     1     -25.832   3.120  24.385  0.00  0.00    +0.000 C 
BRANCH 219 220
ATOM    220  O   UNL     1     -24.828   2.810  23.494  0.00  0.00    +0.000 OA
BRANCH 220 221
ATOM    221  C   UNL     1     -25.231   2.157  22.277  0.00  0.00    +0.000 C 
BRANCH 221 222
ATOM    222  C   UNL     1     -24.339   2.636  21.135  0.00  0.00    +0.000 C 
BRANCH 222 223
ATOM    223  O   UNL     1     -23.900   1.567  20.337  0.00  0.00    +0.000 OA
BRANCH 223 224
ATOM    224  C   UNL     1     -24.269   1.667  18.974  0.00  0.00    +0.000 C 
BRANCH 224 225
ATOM    225  C   UNL     1     -23.840   3.054  18.484  0.00  0.00    +0.000 C 
BRANCH 225 226
ATOM    226  O   UNL     1     -22.734   2.958  17.591  0.00  0.00    +0.000 OA
BRANCH 226 227
ATOM    227  C   UNL     1     -23.091   3.162  16.236  0.00  0.00    +0.000 C 
BRANCH 227 228
ATOM    228  C   UNL     1     -22.096   2.438  15.366  0.00  0.00    +0.000 C 
BRANCH 228 229
ATOM    229  O   UNL     1     -22.706   1.501  14.520  0.00  0.00    +0.000 OA
BRANCH 229 230
ATOM    230  C   UNL     1     -23.762   2.050  13.777  0.00  0.00    +0.000 C 
BRANCH 230 231
ATOM    231  C   UNL     1     -24.565   0.966  13.124  0.00  0.00    +0.000 C 
BRANCH 231 232
ATOM    232  O   UNL     1     -23.692   0.075  12.474  0.00  0.00    +0.000 OA
BRANCH 232 233
ATOM    233  C   UNL     1     -24.121  -0.284  11.181  0.00  0.00    +0.000 C 
BRANCH 233 234
ATOM    234  C   UNL     1     -25.210   0.656  10.710  0.00  0.00    +0.000 C 
ATOM    235  O   UNL     1     -26.364  -0.095  10.405  0.00  0.00    +0.000 OA
ENDBRANCH 233 234
ENDBRANCH 232 233
ENDBRANCH 231 232
ENDBRANCH 230 231
ENDBRANCH 229 230
ENDBRANCH 228 229
ENDBRANCH 227 228
ENDBRANCH 226 227
ENDBRANCH 225 226
ENDBRANCH 224 225
ENDBRANCH 223 224
ENDBRANCH 222 223
ENDBRANCH 221 222
ENDBRANCH 220 221
ENDBRANCH 219 220
ENDBRANCH 218 219
ENDBRANCH 217 218
ENDBRANCH 216 217
ENDBRANCH 215 216
ENDBRANCH 214 215
ENDBRANCH 213 214
ENDBRANCH 212 213
ENDBRANCH 211 212
ENDBRANCH 210 211
ENDBRANCH 209 210
ENDBRANCH 208 209
ENDBRANCH 207 208
ENDBRANCH 206 207
ENDBRANCH 205 206
ENDBRANCH   1 205
TORSDOF 175
ENDMDL
MODEL 4
REMARK VINA RESULT:      -4.6      2.179      4.168
REMARK  Name = human_CD1d_Tyloxapol_pred.rank_0
REMARK  175 active torsions:
REMARK  status: ('A' for Active; 'I' for Inactive)
REMARK    1  A    between atoms: C_1  and  C_3
REMARK    2  A    between atoms: C_3  and  O_4
REMARK    3  A    between atoms: O_4  and  C_5
REMARK    4  A    between atoms: C_5  and  C_7
REMARK    5  A    between atoms: O_6  and  C_7
REMARK    6  A    between atoms: O_6  and  C_9
REMARK    7  A    between atoms: O_8  and  C_11
REMARK    8  A    between atoms: O_8  and  C_13
REMARK    9  A    between atoms: C_9  and  C_11
REMARK   10  A    between atoms: O_10  and  C_15
REMARK   11  A    between atoms: O_10  and  C_17
REMARK   12  A    between atoms: O_12  and  C_19
REMARK   13  A    between atoms: O_12  and  C_21
REMARK   14  A    between atoms: C_13  and  C_15
REMARK   15  A    between atoms: O_14  and  C_23
REMARK   16  A    between atoms: O_14  and  C_25
REMARK   17  A    between atoms: O_16  and  C_27
REMARK   18  A    between atoms: O_16  and  C_29
REMARK   19  A    between atoms: C_17  and  C_19
REMARK   20  A    between atoms: O_18  and  C_37
REMARK   21  A    between atoms: O_18  and  C_39
REMARK   22  A    between atoms: O_20  and  C_41
REMARK   23  A    between atoms: O_20  and  C_43
REMARK   24  A    between atoms: C_21  and  C_23
REMARK   25  A    between atoms: O_22  and  C_49
REMARK   26  A    between atoms: O_22  and  C_51
REMARK   27  A    between atoms: O_24  and  C_53
REMARK   28  A    between atoms: O_24  and  C_55
REMARK   29  A    between atoms: C_25  and  C_27
REMARK   30  A    between atoms: O_26  and  C_57
REMARK   31  A    between atoms: O_26  and  C_59
REMARK   32  A    between atoms: O_28  and  C_61
REMARK   33  A    between atoms: O_28  and  C_63
REMARK   34  A    between atoms: C_29  and  C_31
REMARK   35  A    between atoms: O_30  and  C_65
REMARK   36  A    between atoms: O_30  and  C_67
REMARK   37  A    between atoms: C_31  and  C_33
REMARK   38  A    between atoms: O_32  and  C_69
REMARK   39  A    between atoms: O_32  and  C_71
REMARK   40  A    between atoms: C_33  and  C_35
REMARK   41  A    between atoms: O_34  and  C_73
REMARK   42  A    between atoms: O_34  and  C_75
REMARK   43  A    between atoms: C_35  and  C_37
REMARK   44  A    between atoms: O_36  and  C_77
REMARK   45  A    between atoms: O_36  and  C_79
REMARK   46  A    between atoms: O_38  and  C_81
REMARK   47  A    between atoms: O_38  and  C_83
REMARK   48  A    between atoms: C_39  and  C_41
REMARK   49  A    between atoms: O_40  and  C_85
REMARK   50  A    between atoms: O_40  and  C_87
REMARK   51  A    between atoms: C_43  and  C_45
REMARK   52  A    between atoms: C_43  and  C_163
REMARK   53  A    between atoms: O_44  and  C_116
REMARK   54  A    between atoms: O_44  and  C_117
REMARK   55  A    between atoms: C_45  and  C_47
REMARK   56  A    between atoms: C_45  and  C_150
REMARK   57  A    between atoms: O_46  and  C_118
REMARK   58  A    between atoms: O_46  and  C_119
REMARK   59  A    between atoms: O_48  and  C_120
REMARK   60  A    between atoms: O_48  and  C_121
REMARK   61  A    between atoms: O_50  and  C_122
REMARK   62  A    between atoms: O_50  and  C_123
REMARK   63  A    between atoms: C_51  and  C_53
REMARK   64  A    between atoms: O_52  and  C_124
REMARK   65  A    between atoms: O_52  and  C_125
REMARK   66  A    between atoms: O_54  and  C_126
REMARK   67  A    between atoms: O_54  and  C_127
REMARK   68  A    between atoms: C_55  and  C_57
REMARK   69  A    between atoms: O_56  and  C_128
REMARK   70  A    between atoms: O_56  and  C_129
REMARK   71  A    between atoms: O_58  and  C_130
REMARK   72  A    between atoms: O_58  and  C_131
REMARK   73  A    between atoms: C_59  and  C_61
REMARK   74  A    between atoms: O_60  and  C_132
REMARK   75  A    between atoms: O_60  and  C_133
REMARK   76  A    between atoms: O_62  and  C_134
REMARK   77  A    between atoms: O_62  and  C_135
REMARK   78  A    between atoms: C_63  and  C_65
REMARK   79  A    between atoms: O_66  and  C_180
REMARK   80  A    between atoms: O_66  and  C_181
REMARK   81  A    between atoms: C_67  and  C_69
REMARK   82  A    between atoms: O_68  and  C_182
REMARK   83  A    between atoms: O_68  and  C_183
REMARK   84  A    between atoms: O_70  and  C_184
REMARK   85  A    between atoms: O_70  and  C_185
REMARK   86  A    between atoms: C_71  and  C_73
REMARK   87  A    between atoms: O_72  and  C_186
REMARK   88  A    between atoms: O_72  and  C_187
REMARK   89  A    between atoms: O_74  and  C_188
REMARK   90  A    between atoms: O_74  and  C_189
REMARK   91  A    between atoms: C_75  and  C_77
REMARK   92  A    between atoms: O_76  and  C_190
REMARK   93  A    between atoms: O_76  and  C_191
REMARK   94  A    between atoms: O_78  and  C_192
REMARK   95  A    between atoms: O_78  and  C_193
REMARK   96  A    between atoms: C_79  and  C_81
REMARK   97  A    between atoms: O_80  and  C_194
REMARK   98  A    between atoms: O_80  and  C_195
REMARK   99  A    between atoms: O_82  and  C_196
REMARK  100  A    between atoms: O_82  and  C_197
REMARK  101  A    between atoms: C_83  and  C_85
REMARK  102  A    between atoms: O_84  and  C_198
REMARK  103  A    between atoms: O_84  and  C_199
REMARK  104  A    between atoms: C_87  and  C_89
REMARK  105  A    between atoms: O_88  and  C_215
REMARK  106  A    between atoms: O_88  and  C_216
REMARK  107  A    between atoms: O_90  and  C_217
REMARK  108  A    between atoms: O_90  and  C_218
REMARK  109  A    between atoms: O_92  and  C_219
REMARK  110  A    between atoms: O_92  and  C_220
REMARK  111  A    between atoms: O_94  and  C_221
REMARK  112  A    between atoms: O_94  and  C_222
REMARK  113  A    between atoms: O_96  and  C_223
REMARK  114  A    between atoms: O_96  and  C_224
REMARK  115  A    between atoms: C_97  and  C_99
REMARK  116  A    between atoms: O_98  and  C_225
REMARK  117  A    between atoms: O_98  and  C_226
REMARK  118  A    between atoms: C_99  and  C_105
REMARK  119  A    between atoms: O_100  and  C_227
REMARK  120  A    between atoms: O_100  and  C_228
REMARK  121  A    between atoms: O_102  and  C_229
REMARK  122  A    between atoms: O_102  and  C_230
REMARK  123  A    between atoms: O_104  and  C_231
REMARK  124  A    between atoms: O_104  and  C_232
REMARK  125  A    between atoms: C_105  and  C_107
REMARK  126  A    between atoms: O_106  and  C_233
REMARK  127  A    between atoms: O_106  and  C_234
REMARK  128  A    between atoms: C_117  and  C_118
REMARK  129  A    between atoms: C_119  and  C_120
REMARK  130  A    between atoms: C_121  and  C_122
REMARK  131  A    between atoms: C_123  and  C_124
REMARK  132  A    between atoms: C_125  and  C_126
REMARK  133  A    between atoms: C_127  and  C_128
REMARK  134  A    between atoms: C_129  and  C_130
REMARK  135  A    between atoms: C_131  and  C_132
REMARK  136  A    between atoms: C_133  and  C_134
REMARK  137  A    between atoms: C_135  and  C_136
REMARK  138  A    between atoms: C_138  and  C_139
REMARK  139  A    between atoms: C_139  and  C_142
REMARK  140  A    between atoms: C_142  and  C_145
REMARK  141  A    between atoms: C_150  and  C_151
REMARK  142  A    between atoms: C_151  and  C_152
REMARK  143  A    between atoms: C_152  and  C_155
REMARK  144  A    between atoms: C_155  and  C_158
REMARK  145  A    between atoms: C_163  and  C_164
REMARK  146  A    between atoms: C_166  and  C_167
REMARK  147  A    between atoms: C_167  and  C_168
REMARK  148  A    between atoms: C_168  and  C_171
REMARK  149  A    between atoms: C_178  and  C_179
REMARK  150  A    between atoms: C_179  and  C_180
REMARK  151  A    between atoms: C_179  and  C_214
REMARK  152  A    between atoms: C_181  and  C_182
REMARK  153  A    between atoms: C_183  and  C_184
REMARK  154  A    between atoms: C_185  and  C_186
REMARK  155  A    between atoms: C_187  and  C_188
REMARK  156  A    between atoms: C_189  and  C_190
REMARK  157  A    between atoms: C_191  and  C_192
REMARK  158  A    between atoms: C_193  and  C_194
REMARK  159  A    between atoms: C_195  and  C_196
REMARK  160  A    between atoms: C_197  and  C_198
REMARK  161  A    between atoms: C_199  and  C_200
REMARK  162  A    between atoms: C_203  and  C_204
REMARK  163  A    between atoms: C_203  and  C_214
REMARK  164  A    between atoms: C_204  and  C_207
REMARK  165  A    between atoms: C_207  and  C_210
REMARK  166  A    between atoms: C_216  and  C_217
REMARK  167  A    between atoms: C_218  and  C_219
REMARK  168  A    between atoms: C_220  and  C_221
REMARK  169  A    between atoms: C_222  and  C_223
REMARK  170  A    between atoms: C_224  and  C_225
REMARK  171  A    between atoms: C_226  and  C_227
REMARK  172  A    between atoms: C_228  and  C_229
REMARK  173  A    between atoms: C_230  and  C_231
REMARK  174  A    between atoms: C_232  and  C_233
REMARK  175  A    between atoms: C_234  and  C_235
REMARK                            x       y       z     vdW  Elec       q    Type
REMARK                         _______ _______ _______ _____ _____    ______ ____
ROOT
ATOM      1  C   UNL     1     -14.104  10.776  25.239  0.00  0.00    +0.000 C 
ENDROOT
BRANCH   1   2
ATOM      2  C   UNL     1     -12.843  10.193  26.617  0.00  0.00    +0.000 C 
BRANCH   2   3
ATOM      3  C   UNL     1     -12.531   8.670  26.781  0.00  0.00    +0.000 C 
ATOM      4  C   UNL     1     -11.733   8.349  28.195  0.00  0.00    +0.000 C 
ATOM      5  C   UNL     1     -10.225   8.287  27.998  0.00  0.00    +0.000 C 
ATOM      6  C   UNL     1      -9.897   6.889  27.003  0.00  0.00    +0.000 C 
ATOM      7  C   UNL     1     -10.085   6.959  25.542  0.00  0.00    +0.000 C 
ATOM      8  C   UNL     1     -11.644   7.715  25.206  0.00  0.00    +0.000 C 
BRANCH   5   9
ATOM      9  C   UNL     1      -9.430   8.260  29.416  0.00  0.00    +0.000 C 
ATOM     10  C   UNL     1     -10.226   8.040  30.310  0.00  0.00    +0.000 C 
ATOM     11  C   UNL     1      -8.210   7.259  29.214  0.00  0.00    +0.000 C 
BRANCH   9  12
ATOM     12  C   UNL     1      -8.654   9.673  29.739  0.00  0.00    +0.000 C 
ATOM     13  C   UNL     1      -8.552   9.913  31.266  0.00  0.00    +0.000 C 
ATOM     14  C   UNL     1      -9.663  11.007  29.402  0.00  0.00    +0.000 C 
BRANCH  12  15
ATOM     15  C   UNL     1      -7.435  10.073  28.969  0.00  0.00    +0.000 C 
ATOM     16  C   UNL     1      -6.410   9.891  30.079  0.00  0.00    +0.000 C 
ATOM     17  C   UNL     1      -7.335  11.484  28.547  0.00  0.00    +0.000 C 
ATOM     18  C   UNL     1      -7.188   9.226  27.793  0.00  0.00    +0.000 C 
ENDBRANCH  12  15
ENDBRANCH   9  12
ENDBRANCH   5   9
BRANCH   7  19
ATOM     19  C   UNL     1      -9.408   5.807  24.686  0.00  0.00    +0.000 C 
BRANCH  19  20
ATOM     20  C   UNL     1     -10.375   4.608  24.372  0.00  0.00    +0.000 C 
ATOM     21  C   UNL     1     -11.446   4.379  25.512  0.00  0.00    +0.000 C 
BRANCH  20  22
ATOM     22  O   UNL     1     -11.198   4.953  23.198  0.00  0.00    +0.000 OA
BRANCH  22  23
ATOM     23  C   UNL     1     -11.093   4.073  22.113  0.00  0.00    +0.000 C 
BRANCH  23  24
ATOM     24  C   UNL     1     -11.282   4.823  20.802  0.00  0.00    +0.000 C 
BRANCH  24  25
ATOM     25  O   UNL     1     -12.356   4.270  20.114  0.00  0.00    +0.000 OA
BRANCH  25  26
ATOM     26  C   UNL     1     -11.962   3.553  18.955  0.00  0.00    +0.000 C 
BRANCH  26  27
ATOM     27  C   UNL     1     -13.079   3.427  18.011  0.00  0.00    +0.000 C 
BRANCH  27  28
ATOM     28  O   UNL     1     -13.477   4.683  17.604  0.00  0.00    +0.000 OA
BRANCH  28  29
ATOM     29  C   UNL     1     -14.201   4.708  16.391  0.00  0.00    +0.000 C 
BRANCH  29  30
ATOM     30  C   UNL     1     -13.249   4.461  15.245  0.00  0.00    +0.000 C 
BRANCH  30  31
ATOM     31  O   UNL     1     -13.742   3.390  14.502  0.00  0.00    +0.000 OA
BRANCH  31  32
ATOM     32  C   UNL     1     -12.682   2.711  13.803  0.00  0.00    +0.000 C 
BRANCH  32  33
ATOM     33  C   UNL     1     -11.453   2.688  14.725  0.00  0.00    +0.000 C 
BRANCH  33  34
ATOM     34  O   UNL     1     -10.326   2.450  13.945  0.00  0.00    +0.000 OA
BRANCH  34  35
ATOM     35  C   UNL     1     -10.341   3.116  12.667  0.00  0.00    +0.000 C 
BRANCH  35  36
ATOM     36  C   UNL     1      -9.784   4.505  12.746  0.00  0.00    +0.000 C 
BRANCH  36  37
ATOM     37  O   UNL     1     -10.459   5.287  11.717  0.00  0.00    +0.000 OA
BRANCH  37  38
ATOM     38  C   UNL     1     -10.354   4.653  10.467  0.00  0.00    +0.000 C 
BRANCH  38  39
ATOM     39  C   UNL     1      -9.176   5.071   9.683  0.00  0.00    +0.000 C 
BRANCH  39  40
ATOM     40  O   UNL     1      -9.134   4.229   8.437  0.00  0.00    +0.000 OA
BRANCH  40  41
ATOM     41  C   UNL     1     -10.411   4.056   7.868  0.00  0.00    +0.000 C 
BRANCH  41  42
ATOM     42  C   UNL     1     -10.616   4.956   6.700  0.00  0.00    +0.000 C 
BRANCH  42  43
ATOM     43  O   UNL     1     -11.890   4.840   6.205  0.00  0.00    +0.000 OA
BRANCH  43  44
ATOM     44  C   UNL     1     -12.792   4.103   6.979  0.00  0.00    +0.000 C 
BRANCH  44  45
ATOM     45  C   UNL     1     -14.073   3.857   6.264  0.00  0.00    +0.000 C 
BRANCH  45  46
ATOM     46  O   UNL     1     -14.499   2.529   6.586  0.00  0.00    +0.000 OA
BRANCH  46  47
ATOM     47  C   UNL     1     -13.983   2.166   7.856  0.00  0.00    +0.000 C 
BRANCH  47  48
ATOM     48  C   UNL     1     -15.168   1.540   8.704  0.00  0.00    +0.000 C 
BRANCH  48  49
ATOM     49  O   UNL     1     -14.680   1.110   9.927  0.00  0.00    +0.000 OA
BRANCH  49  50
ATOM     50  C   UNL     1     -15.235  -0.061  10.423  0.00  0.00    +0.000 C 
BRANCH  50  52
ATOM     51  O   UNL     1     -16.994  -0.772  11.869  0.00  0.00    +0.000 OA
ATOM     52  C   UNL     1     -16.695   0.198  10.846  0.00  0.00    +0.000 C 
ENDBRANCH  50  52
ENDBRANCH  49  50
ENDBRANCH  48  49
ENDBRANCH  47  48
ENDBRANCH  46  47
ENDBRANCH  45  46
ENDBRANCH  44  45
ENDBRANCH  43  44
ENDBRANCH  42  43
ENDBRANCH  41  42
ENDBRANCH  40  41
ENDBRANCH  39  40
ENDBRANCH  38  39
ENDBRANCH  37  38
ENDBRANCH  36  37
ENDBRANCH  35  36
ENDBRANCH  34  35
ENDBRANCH  33  34
ENDBRANCH  32  33
ENDBRANCH  31  32
ENDBRANCH  30  31
ENDBRANCH  29  30
ENDBRANCH  28  29
ENDBRANCH  27  28
ENDBRANCH  26  27
ENDBRANCH  25  26
ENDBRANCH  24  25
ENDBRANCH  23  24
ENDBRANCH  22  23
ENDBRANCH  20  22
ENDBRANCH  19  20
BRANCH  19  53
ATOM     53  C   UNL     1      -8.787   6.217  23.251  0.00  0.00    +0.000 C 
BRANCH  53  55
ATOM     54  C   UNL     1      -7.705   5.269  21.364  0.00  0.00    +0.000 C 
ATOM     55  C   UNL     1      -7.604   5.955  22.679  0.00  0.00    +0.000 C 
BRANCH  55  56
ATOM     56  C   UNL     1      -6.239   6.299  23.272  0.00  0.00    +0.000 C 
ATOM     57  C   UNL     1      -5.714   7.320  22.321  0.00  0.00    +0.000 C 
ATOM     58  C   UNL     1      -6.435   6.973  24.600  0.00  0.00    +0.000 C 
BRANCH  56  59
ATOM     59  C   UNL     1      -5.330   5.038  23.389  0.00  0.00    +0.000 C 
ATOM     60  C   UNL     1      -6.048   3.789  23.057  0.00  0.00    +0.000 C 
ATOM     61  C   UNL     1      -4.826   4.968  24.850  0.00  0.00    +0.000 C 
BRANCH  59  62
ATOM     62  C   UNL     1      -4.020   5.093  22.477  0.00  0.00    +0.000 C 
ATOM     63  C   UNL     1      -4.087   4.082  21.388  0.00  0.00    +0.000 C 
ATOM     64  C   UNL     1      -2.812   4.724  23.304  0.00  0.00    +0.000 C 
ATOM     65  C   UNL     1      -3.725   6.409  21.941  0.00  0.00    +0.000 C 
ENDBRANCH  59  62
ENDBRANCH  56  59
ENDBRANCH  55  56
ENDBRANCH  53  55
ENDBRANCH  19  53
ENDBRANCH   7  19
BRANCH   8  66
ATOM     66  O   UNL     1     -12.313   7.729  24.016  0.00  0.00    +0.000 OA
BRANCH  66  67
ATOM     67  C   UNL     1     -11.758   8.542  23.009  0.00  0.00    +0.000 C 
BRANCH  67  68
ATOM     68  C   UNL     1     -12.408   8.472  21.609  0.00  0.00    +0.000 C 
BRANCH  68  69
ATOM     69  O   UNL     1     -13.457   7.545  21.644  0.00  0.00    +0.000 OA
BRANCH  69  70
ATOM     70  C   UNL     1     -14.752   8.144  21.314  0.00  0.00    +0.000 C 
BRANCH  70  71
ATOM     71  C   UNL     1     -14.586   9.290  20.332  0.00  0.00    +0.000 C 
BRANCH  71  72
ATOM     72  O   UNL     1     -15.864   9.407  19.480  0.00  0.00    +0.000 OA
BRANCH  72  73
ATOM     73  C   UNL     1     -16.289   8.129  19.025  0.00  0.00    +0.000 C 
BRANCH  73  74
ATOM     74  C   UNL     1     -17.759   7.928  19.414  0.00  0.00    +0.000 C 
BRANCH  74  75
ATOM     75  O   UNL     1     -18.575   7.882  18.286  0.00  0.00    +0.000 OA
BRANCH  75  76
ATOM     76  C   UNL     1     -19.516   8.962  18.223  0.00  0.00    +0.000 C 
BRANCH  76  77
ATOM     77  C   UNL     1     -20.936   8.466  18.185  0.00  0.00    +0.000 C 
BRANCH  77  78
ATOM     78  O   UNL     1     -21.559   9.223  17.156  0.00  0.00    +0.000 OA
BRANCH  78  79
ATOM     79  C   UNL     1     -22.858   9.781  17.546  0.00  0.00    +0.000 C 
BRANCH  79  80
ATOM     80  C   UNL     1     -23.509   8.773  18.414  0.00  0.00    +0.000 C 
BRANCH  80  81
ATOM     81  O   UNL     1     -24.878   8.497  18.015  0.00  0.00    +0.000 OA
BRANCH  81  82
ATOM     82  C   UNL     1     -24.997   7.996  16.722  0.00  0.00    +0.000 C 
BRANCH  82  83
ATOM     83  C   UNL     1     -25.375   6.501  16.756  0.00  0.00    +0.000 C 
BRANCH  83  84
ATOM     84  O   UNL     1     -26.408   6.235  15.838  0.00  0.00    +0.000 OA
BRANCH  84  85
ATOM     85  C   UNL     1     -26.988   7.278  15.231  0.00  0.00    +0.000 C 
BRANCH  85  86
ATOM     86  C   UNL     1     -28.327   6.858  14.589  0.00  0.00    +0.000 C 
BRANCH  86  87
ATOM     87  O   UNL     1     -28.227   6.623  13.208  0.00  0.00    +0.000 OA
BRANCH  87  88
ATOM     88  C   UNL     1     -28.874   5.478  12.777  0.00  0.00    +0.000 C 
BRANCH  88  89
ATOM     89  C   UNL     1     -27.901   4.323  12.611  0.00  0.00    +0.000 C 
BRANCH  89  90
ATOM     90  O   UNL     1     -26.799   4.742  11.813  0.00  0.00    +0.000 OA
BRANCH  90  91
ATOM     91  C   UNL     1     -25.853   3.657  11.718  0.00  0.00    +0.000 C 
BRANCH  91  92
ATOM     92  C   UNL     1     -25.889   2.904  13.024  0.00  0.00    +0.000 C 
BRANCH  92  93
ATOM     93  O   UNL     1     -25.087   1.734  12.891  0.00  0.00    +0.000 OA
BRANCH  93  94
ATOM     94  C   UNL     1     -24.283   1.493  13.982  0.00  0.00    +0.000 C 
BRANCH  94  96
ATOM     95  O   UNL     1     -22.590   3.185  14.200  0.00  0.00    +0.000 OA
ATOM     96  C   UNL     1     -23.865   2.809  14.647  0.00  0.00    +0.000 C 
ENDBRANCH  94  96
ENDBRANCH  93  94
ENDBRANCH  92  93
ENDBRANCH  91  92
ENDBRANCH  90  91
ENDBRANCH  89  90
ENDBRANCH  88  89
ENDBRANCH  87  88
ENDBRANCH  86  87
ENDBRANCH  85  86
ENDBRANCH  84  85
ENDBRANCH  83  84
ENDBRANCH  82  83
ENDBRANCH  81  82
ENDBRANCH  80  81
ENDBRANCH  79  80
ENDBRANCH  78  79
ENDBRANCH  77  78
ENDBRANCH  76  77
ENDBRANCH  75  76
ENDBRANCH  74  75
ENDBRANCH  73  74
ENDBRANCH  72  73
ENDBRANCH  71  72
ENDBRANCH  70  71
ENDBRANCH  69  70
ENDBRANCH  68  69
ENDBRANCH  67  68
ENDBRANCH  66  67
ENDBRANCH   8  66
ENDBRANCH   2   3
ENDBRANCH   1   2
BRANCH   1  97
ATOM     97  C   UNL     1     -14.320  12.193  24.742  0.00  0.00    +0.000 C 
BRANCH  97  98
ATOM     98  C   UNL     1     -15.889  12.561  24.601  0.00  0.00    +0.000 C 
ATOM     99  C   UNL     1     -16.437  13.306  25.854  0.00  0.00    +0.000 C 
ATOM    100  C   UNL     1     -17.975  13.715  25.827  0.00  0.00    +0.000 C 
ATOM    101  C   UNL     1     -19.214  14.283  26.367  0.00  0.00    +0.000 C 
ATOM    102  C   UNL     1     -20.610  13.740  26.175  0.00  0.00    +0.000 C 
ATOM    103  C   UNL     1     -21.759  14.356  26.803  0.00  0.00    +0.000 C 
ATOM    104  C   UNL     1     -21.490  15.469  27.673  0.00  0.00    +0.000 C 
ATOM    105  C   UNL     1     -20.241  16.060  27.820  0.00  0.00    +0.000 C 
ATOM    106  C   UNL     1     -19.242  15.434  27.137  0.00  0.00    +0.000 C 
ATOM    107  C   UNL     1     -18.365  13.220  25.272  0.00  0.00    +0.000 C 
ATOM    108  C   UNL     1     -18.163  12.661  24.058  0.00  0.00    +0.000 C 
ATOM    109  C   UNL     1     -16.749  12.590  23.463  0.00  0.00    +0.000 C 
BRANCH 103 110
ATOM    110  C   UNL     1     -23.155  13.829  26.487  0.00  0.00    +0.000 C 
ATOM    111  C   UNL     1     -24.103  14.957  26.987  0.00  0.00    +0.000 C 
ATOM    112  C   UNL     1     -23.344  13.790  25.042  0.00  0.00    +0.000 C 
BRANCH 110 113
ATOM    113  C   UNL     1     -23.663  12.494  27.079  0.00  0.00    +0.000 C 
ATOM    114  C   UNL     1     -24.990  12.228  26.441  0.00  0.00    +0.000 C 
ATOM    115  C   UNL     1     -22.664  11.384  26.737  0.00  0.00    +0.000 C 
BRANCH 113 116
ATOM    116  C   UNL     1     -23.794  12.468  28.668  0.00  0.00    +0.000 C 
ATOM    117  C   UNL     1     -22.466  12.129  29.317  0.00  0.00    +0.000 C 
ATOM    118  C   UNL     1     -24.697  11.369  29.100  0.00  0.00    +0.000 C 
ATOM    119  C   UNL     1     -24.338  13.769  29.186  0.00  0.00    +0.000 C 
ENDBRANCH 113 116
ENDBRANCH 110 113
ENDBRANCH 103 110
BRANCH 108 120
ATOM    120  C   UNL     1     -19.217  11.598  23.571  0.00  0.00    +0.000 C 
ATOM    121  C   UNL     1     -19.873  11.020  24.836  0.00  0.00    +0.000 C 
ATOM    122  C   UNL     1     -18.452  10.472  22.977  0.00  0.00    +0.000 C 
BRANCH 120 123
ATOM    123  C   UNL     1     -20.484  12.129  22.696  0.00  0.00    +0.000 C 
ATOM    124  C   UNL     1     -21.783  11.773  23.269  0.00  0.00    +0.000 C 
ATOM    125  C   UNL     1     -20.484  13.636  22.623  0.00  0.00    +0.000 C 
BRANCH 123 126
ATOM    126  C   UNL     1     -20.555  11.552  21.240  0.00  0.00    +0.000 C 
ATOM    127  C   UNL     1     -19.188  11.114  20.846  0.00  0.00    +0.000 C 
ATOM    128  C   UNL     1     -20.938  12.622  20.254  0.00  0.00    +0.000 C 
ATOM    129  C   UNL     1     -21.588  10.494  21.146  0.00  0.00    +0.000 C 
ENDBRANCH 123 126
ENDBRANCH 120 123
ENDBRANCH 108 120
BRANCH 106 130
ATOM    130  O   UNL     1     -18.025  16.069  27.049  0.00  0.00    +0.000 OA
BRANCH 130 131
ATOM    131  C   UNL     1     -17.425  16.628  28.242  0.00  0.00    +0.000 C 
BRANCH 131 132
ATOM    132  C   UNL     1     -16.755  17.928  27.839  0.00  0.00    +0.000 C 
BRANCH 132 133
ATOM    133  O   UNL     1     -17.354  18.442  26.701  0.00  0.00    +0.000 OA
BRANCH 133 134
ATOM    134  C   UNL     1     -18.303  19.460  26.977  0.00  0.00    +0.000 C 
BRANCH 134 135
ATOM    135  C   UNL     1     -19.484  19.301  26.085  0.00  0.00    +0.000 C 
BRANCH 135 136
ATOM    136  O   UNL     1     -19.106  18.668  25.207  0.00  0.00    +0.000 OA
BRANCH 136 137
ATOM    137  C   UNL     1     -20.123  18.012  24.533  0.00  0.00    +0.000 C 
BRANCH 137 138
ATOM    138  C   UNL     1     -19.602  16.949  23.507  0.00  0.00    +0.000 C 
BRANCH 138 139
ATOM    139  O   UNL     1     -18.324  16.656  23.840  0.00  0.00    +0.000 OA
BRANCH 139 140
ATOM    140  C   UNL     1     -17.475  16.472  22.686  0.00  0.00    +0.000 C 
BRANCH 140 141
ATOM    141  C   UNL     1     -17.316  17.781  21.980  0.00  0.00    +0.000 C 
BRANCH 141 142
ATOM    142  O   UNL     1     -16.462  17.624  20.868  0.00  0.00    +0.000 OA
BRANCH 142 143
ATOM    143  C   UNL     1     -17.000  16.770  19.860  0.00  0.00    +0.000 C 
BRANCH 143 144
ATOM    144  C   UNL     1     -15.890  16.402  18.839  0.00  0.00    +0.000 C 
BRANCH 144 145
ATOM    145  O   UNL     1     -15.387  17.565  18.162  0.00  0.00    +0.000 OA
BRANCH 145 146
ATOM    146  C   UNL     1     -15.441  17.606  16.728  0.00  0.00    +0.000 C 
BRANCH 146 147
ATOM    147  C   UNL     1     -14.511  18.641  16.147  0.00  0.00    +0.000 C 
BRANCH 147 148
ATOM    148  O   UNL     1     -15.309  19.594  15.422  0.00  0.00    +0.000 OA
BRANCH 148 149
ATOM    149  C   UNL     1     -16.673  19.242  15.257  0.00  0.00    +0.000 C 
BRANCH 149 150
ATOM    150  C   UNL     1     -17.104  19.518  13.832  0.00  0.00    +0.000 C 
BRANCH 150 151
ATOM    151  O   UNL     1     -16.468  18.562  12.974  0.00  0.00    +0.000 OA
BRANCH 151 152
ATOM    152  C   UNL     1     -15.650  19.075  11.981  0.00  0.00    +0.000 C 
BRANCH 152 153
ATOM    153  C   UNL     1     -14.308  18.367  11.943  0.00  0.00    +0.000 C 
BRANCH 153 154
ATOM    154  O   UNL     1     -14.280  17.353  12.945  0.00  0.00    +0.000 OA
BRANCH 154 155
ATOM    155  C   UNL     1     -13.226  16.443  12.813  0.00  0.00    +0.000 C 
BRANCH 155 156
ATOM    156  C   UNL     1     -12.074  16.815  13.781  0.00  0.00    +0.000 C 
BRANCH 156 157
ATOM    157  O   UNL     1     -10.969  17.243  12.979  0.00  0.00    +0.000 OA
BRANCH 157 158
ATOM    158  C   UNL     1      -9.902  17.744  13.740  0.00  0.00    +0.000 C 
BRANCH 158 160
ATOM    159  O   UNL     1      -8.045  17.141  12.221  0.00  0.00    +0.000 OA
ATOM    160  C   UNL     1      -8.944  18.260  12.758  0.00  0.00    +0.000 C 
ENDBRANCH 158 160
ENDBRANCH 157 158
ENDBRANCH 156 157
ENDBRANCH 155 156
ENDBRANCH 154 155
ENDBRANCH 153 154
ENDBRANCH 152 153
ENDBRANCH 151 152
ENDBRANCH 150 151
ENDBRANCH 149 150
ENDBRANCH 148 149
ENDBRANCH 147 148
ENDBRANCH 146 147
ENDBRANCH 145 146
ENDBRANCH 144 145
ENDBRANCH 143 144
ENDBRANCH 142 143
ENDBRANCH 141 142
ENDBRANCH 140 141
ENDBRANCH 139 140
ENDBRANCH 138 139
ENDBRANCH 137 138
ENDBRANCH 136 137
ENDBRANCH 135 136
ENDBRANCH 134 135
ENDBRANCH 133 134
ENDBRANCH 132 133
ENDBRANCH 131 132
ENDBRANCH 130 131
ENDBRANCH 106 130
BRANCH  99 161
ATOM    161  O   UNL     1     -15.997  12.956  27.107  0.00  0.00    +0.000 OA
BRANCH 161 162
ATOM    162  C   UNL     1     -16.939  12.502  28.085  0.00  0.00    +0.000 C 
BRANCH 162 163
ATOM    163  C   UNL     1     -16.794  13.109  29.472  0.00  0.00    +0.000 C 
BRANCH 163 164
ATOM    164  O   UNL     1     -17.741  12.569  30.342  0.00  0.00    +0.000 OA
BRANCH 164 165
ATOM    165  C   UNL     1     -17.618  11.193  30.587  0.00  0.00    +0.000 C 
BRANCH 165 166
ATOM    166  C   UNL     1     -16.278  10.815  31.224  0.00  0.00    +0.000 C 
BRANCH 166 167
ATOM    167  O   UNL     1     -15.861   9.523  30.714  0.00  0.00    +0.000 OA
BRANCH 167 168
ATOM    168  C   UNL     1     -14.721   9.651  29.891  0.00  0.00    +0.000 C 
BRANCH 168 169
ATOM    169  C   UNL     1     -13.841  10.801  30.358  0.00  0.00    +0.000 C 
BRANCH 169 170
ATOM    170  O   UNL     1     -12.691  10.310  30.973  0.00  0.00    +0.000 OA
BRANCH 170 171
ATOM    171  C   UNL     1     -12.400  10.932  32.209  0.00  0.00    +0.000 C 
BRANCH 171 172
ATOM    172  C   UNL     1     -12.144   9.879  33.334  0.00  0.00    +0.000 C 
BRANCH 172 173
ATOM    173  O   UNL     1     -13.327   9.111  33.469  0.00  0.00    +0.000 OA
BRANCH 173 174
ATOM    174  C   UNL     1     -12.998   7.688  33.519  0.00  0.00    +0.000 C 
BRANCH 174 175
ATOM    175  C   UNL     1     -13.717   6.959  32.386  0.00  0.00    +0.000 C 
BRANCH 175 176
ATOM    176  O   UNL     1     -14.753   6.215  32.941  0.00  0.00    +0.000 OA
BRANCH 176 177
ATOM    177  C   UNL     1     -16.025   6.792  32.696  0.00  0.00    +0.000 C 
BRANCH 177 178
ATOM    178  C   UNL     1     -17.063   5.734  33.045  0.00  0.00    +0.000 C 
BRANCH 178 179
ATOM    179  O   UNL     1     -17.514   5.101  31.861  0.00  0.00    +0.000 OA
BRANCH 179 180
ATOM    180  C   UNL     1     -18.031   6.039  30.880  0.00  0.00    +0.000 C 
BRANCH 180 181
ATOM    181  C   UNL     1     -19.559   5.998  30.878  0.00  0.00    +0.000 C 
BRANCH 181 182
ATOM    182  O   UNL     1     -20.025   5.169  29.850  0.00  0.00    +0.000 OA
BRANCH 182 183
ATOM    183  C   UNL     1     -21.167   4.342  30.269  0.00  0.00    +0.000 C 
BRANCH 183 184
ATOM    184  C   UNL     1     -21.746   3.477  29.149  0.00  0.00    +0.000 C 
BRANCH 184 185
ATOM    185  O   UNL     1     -23.127   3.626  29.207  0.00  0.00    +0.000 OA
BRANCH 185 186
ATOM    186  C   UNL     1     -23.766   2.591  29.975  0.00  0.00    +0.000 C 
BRANCH 186 187
ATOM    187  C   UNL     1     -25.268   2.663  29.819  0.00  0.00    +0.000 C 
BRANCH 187 188
ATOM    188  O   UNL     1     -25.509   3.573  28.666  0.00  0.00    +0.000 OA
BRANCH 188 189
ATOM    189  C   UNL     1     -26.748   4.289  28.854  0.00  0.00    +0.000 C 
BRANCH 189 191
ATOM    190  O   UNL     1     -27.250   4.104  26.547  0.00  0.00    +0.000 OA
ATOM    191  C   UNL     1     -27.718   3.777  27.813  0.00  0.00    +0.000 C 
ENDBRANCH 189 191
ENDBRANCH 188 189
ENDBRANCH 187 188
ENDBRANCH 186 187
ENDBRANCH 185 186
ENDBRANCH 184 185
ENDBRANCH 183 184
ENDBRANCH 182 183
ENDBRANCH 181 182
ENDBRANCH 180 181
ENDBRANCH 179 180
ENDBRANCH 178 179
ENDBRANCH 177 178
ENDBRANCH 176 177
ENDBRANCH 175 176
ENDBRANCH 174 175
ENDBRANCH 173 174
ENDBRANCH 172 173
ENDBRANCH 171 172
ENDBRANCH 170 171
ENDBRANCH 169 170
ENDBRANCH 168 169
ENDBRANCH 167 168
ENDBRANCH 166 167
ENDBRANCH 165 166
ENDBRANCH 164 165
ENDBRANCH 163 164
ENDBRANCH 162 163
ENDBRANCH 161 162
ENDBRANCH  99 161
ENDBRANCH  97  98
BRANCH  97 192
ATOM    192  C   UNL     1     -13.202  12.763  25.424  0.00  0.00    +0.000 C 
BRANCH 192 193
ATOM    193  C   UNL     1     -12.973  14.160  25.697  0.00  0.00    +0.000 C 
ATOM    194  C   UNL     1     -12.966  15.157  24.637  0.00  0.00    +0.000 C 
BRANCH 193 195
ATOM    195  C   UNL     1     -12.712  14.656  27.062  0.00  0.00    +0.000 C 
ATOM    196  C   UNL     1     -13.868  15.604  27.415  0.00  0.00    +0.000 C 
ATOM    197  C   UNL     1     -12.750  13.517  28.090  0.00  0.00    +0.000 C 
BRANCH 195 198
ATOM    198  C   UNL     1     -11.290  15.422  27.120  0.00  0.00    +0.000 C 
ATOM    199  C   UNL     1     -11.248  16.562  26.200  0.00  0.00    +0.000 C 
ATOM    200  C   UNL     1     -10.176  14.479  26.803  0.00  0.00    +0.000 C 
BRANCH 198 201
ATOM    201  C   UNL     1     -10.826  16.031  28.496  0.00  0.00    +0.000 C 
ATOM    202  C   UNL     1      -9.397  15.723  28.825  0.00  0.00    +0.000 C 
ATOM    203  C   UNL     1     -11.619  15.497  29.659  0.00  0.00    +0.000 C 
ATOM    204  C   UNL     1     -10.879  17.484  28.443  0.00  0.00    +0.000 C 
ENDBRANCH 198 201
ENDBRANCH 195 198
ENDBRANCH 193 195
ENDBRANCH 192 193
ENDBRANCH  97 192
ENDBRANCH   1  97
BRANCH   1 205
ATOM    205  O   UNL     1     -15.246  10.276  25.903  0.00  0.00    +0.000 OA
BRANCH 205 206
ATOM    206  C   UNL     1     -15.903   9.249  25.197  0.00  0.00    +0.000 C 
BRANCH 206 207
ATOM    207  C   UNL     1     -17.100   8.735  25.946  0.00  0.00    +0.000 C 
BRANCH 207 208
ATOM    208  O   UNL     1     -16.998   9.020  27.346  0.00  0.00    +0.000 OA
BRANCH 208 209
ATOM    209  C   UNL     1     -18.100   8.496  28.118  0.00  0.00    +0.000 C 
BRANCH 209 210
ATOM    210  C   UNL     1     -19.360   8.462  27.290  0.00  0.00    +0.000 C 
BRANCH 210 211
ATOM    211  C   UNL     1     -20.633   8.390  28.133  0.00  0.00    +0.000 C 
BRANCH 211 212
ATOM    212  C   UNL     1     -21.808   7.903  27.314  0.00  0.00    +0.000 C 
BRANCH 212 213
ATOM    213  C   UNL     1     -22.638   6.935  28.090  0.00  0.00    +0.000 C 
BRANCH 213 214
ATOM    214  O   UNL     1     -23.945   7.006  27.754  0.00  0.00    +0.000 OA
BRANCH 214 215
ATOM    215  C   UNL     1     -24.307   6.023  26.744  0.00  0.00    +0.000 C 
BRANCH 215 216
ATOM    216  C   UNL     1     -24.785   6.663  25.457  0.00  0.00    +0.000 C 
BRANCH 216 217
ATOM    217  O   UNL     1     -24.809   5.746  24.457  0.00  0.00    +0.000 OA
BRANCH 217 218
ATOM    218  C   UNL     1     -25.739   5.492  23.318  0.00  0.00    +0.000 C 
BRANCH 218 219
ATOM    219  C   UNL     1     -25.854   3.934  23.218  0.00  0.00    +0.000 C 
BRANCH 219 220
ATOM    220  O   UNL     1     -24.734   3.401  22.618  0.00  0.00    +0.000 OA
BRANCH 220 221
ATOM    221  C   UNL     1     -24.924   2.807  21.321  0.00  0.00    +0.000 C 
BRANCH 221 222
ATOM    222  C   UNL     1     -23.569   2.369  20.770  0.00  0.00    +0.000 C 
BRANCH 222 223
ATOM    223  O   UNL     1     -23.376   0.984  20.913  0.00  0.00    +0.000 OA
BRANCH 223 224
ATOM    224  C   UNL     1     -24.528   0.275  21.330  0.00  0.00    +0.000 C 
BRANCH 224 225
ATOM    225  C   UNL     1     -24.726  -0.891  20.356  0.00  0.00    +0.000 C 
BRANCH 225 226
ATOM    226  O   UNL     1     -24.554  -2.140  21.018  0.00  0.00    +0.000 OA
BRANCH 226 227
ATOM    227  C   UNL     1     -24.077  -2.008  22.345  0.00  0.00    +0.000 C 
BRANCH 227 228
ATOM    228  C   UNL     1     -22.770  -2.750  22.460  0.00  0.00    +0.000 C 
BRANCH 228 229
ATOM    229  O   UNL     1     -22.383  -2.949  23.793  0.00  0.00    +0.000 OA
BRANCH 229 230
ATOM    230  C   UNL     1     -23.469  -2.936  24.680  0.00  0.00    +0.000 C 
BRANCH 230 231
ATOM    231  C   UNL     1     -23.288  -3.972  25.749  0.00  0.00    +0.000 C 
BRANCH 231 232
ATOM    232  O   UNL     1     -22.445  -4.988  25.265  0.00  0.00    +0.000 OA
BRANCH 232 233
ATOM    233  C   UNL     1     -23.012  -6.275  25.358  0.00  0.00    +0.000 C 
BRANCH 233 234
ATOM    234  C   UNL     1     -24.330  -6.323  24.617  0.00  0.00    +0.000 C 
ATOM    235  O   UNL     1     -25.130  -7.345  25.168  0.00  0.00    +0.000 OA
ENDBRANCH 233 234
ENDBRANCH 232 233
ENDBRANCH 231 232
ENDBRANCH 230 231
ENDBRANCH 229 230
ENDBRANCH 228 229
ENDBRANCH 227 228
ENDBRANCH 226 227
ENDBRANCH 225 226
ENDBRANCH 224 225
ENDBRANCH 223 224
ENDBRANCH 222 223
ENDBRANCH 221 222
ENDBRANCH 220 221
ENDBRANCH 219 220
ENDBRANCH 218 219
ENDBRANCH 217 218
ENDBRANCH 216 217
ENDBRANCH 215 216
ENDBRANCH 214 215
ENDBRANCH 213 214
ENDBRANCH 212 213
ENDBRANCH 211 212
ENDBRANCH 210 211
ENDBRANCH 209 210
ENDBRANCH 208 209
ENDBRANCH 207 208
ENDBRANCH 206 207
ENDBRANCH 205 206
ENDBRANCH   1 205
TORSDOF 175
ENDMDL
MODEL 5
REMARK VINA RESULT:      -4.6      2.026      4.992
REMARK  Name = human_CD1d_Tyloxapol_pred.rank_0
REMARK  175 active torsions:
REMARK  status: ('A' for Active; 'I' for Inactive)
REMARK    1  A    between atoms: C_1  and  C_3
REMARK    2  A    between atoms: C_3  and  O_4
REMARK    3  A    between atoms: O_4  and  C_5
REMARK    4  A    between atoms: C_5  and  C_7
REMARK    5  A    between atoms: O_6  and  C_7
REMARK    6  A    between atoms: O_6  and  C_9
REMARK    7  A    between atoms: O_8  and  C_11
REMARK    8  A    between atoms: O_8  and  C_13
REMARK    9  A    between atoms: C_9  and  C_11
REMARK   10  A    between atoms: O_10  and  C_15
REMARK   11  A    between atoms: O_10  and  C_17
REMARK   12  A    between atoms: O_12  and  C_19
REMARK   13  A    between atoms: O_12  and  C_21
REMARK   14  A    between atoms: C_13  and  C_15
REMARK   15  A    between atoms: O_14  and  C_23
REMARK   16  A    between atoms: O_14  and  C_25
REMARK   17  A    between atoms: O_16  and  C_27
REMARK   18  A    between atoms: O_16  and  C_29
REMARK   19  A    between atoms: C_17  and  C_19
REMARK   20  A    between atoms: O_18  and  C_37
REMARK   21  A    between atoms: O_18  and  C_39
REMARK   22  A    between atoms: O_20  and  C_41
REMARK   23  A    between atoms: O_20  and  C_43
REMARK   24  A    between atoms: C_21  and  C_23
REMARK   25  A    between atoms: O_22  and  C_49
REMARK   26  A    between atoms: O_22  and  C_51
REMARK   27  A    between atoms: O_24  and  C_53
REMARK   28  A    between atoms: O_24  and  C_55
REMARK   29  A    between atoms: C_25  and  C_27
REMARK   30  A    between atoms: O_26  and  C_57
REMARK   31  A    between atoms: O_26  and  C_59
REMARK   32  A    between atoms: O_28  and  C_61
REMARK   33  A    between atoms: O_28  and  C_63
REMARK   34  A    between atoms: C_29  and  C_31
REMARK   35  A    between atoms: O_30  and  C_65
REMARK   36  A    between atoms: O_30  and  C_67
REMARK   37  A    between atoms: C_31  and  C_33
REMARK   38  A    between atoms: O_32  and  C_69
REMARK   39  A    between atoms: O_32  and  C_71
REMARK   40  A    between atoms: C_33  and  C_35
REMARK   41  A    between atoms: O_34  and  C_73
REMARK   42  A    between atoms: O_34  and  C_75
REMARK   43  A    between atoms: C_35  and  C_37
REMARK   44  A    between atoms: O_36  and  C_77
REMARK   45  A    between atoms: O_36  and  C_79
REMARK   46  A    between atoms: O_38  and  C_81
REMARK   47  A    between atoms: O_38  and  C_83
REMARK   48  A    between atoms: C_39  and  C_41
REMARK   49  A    between atoms: O_40  and  C_85
REMARK   50  A    between atoms: O_40  and  C_87
REMARK   51  A    between atoms: C_43  and  C_45
REMARK   52  A    between atoms: C_43  and  C_163
REMARK   53  A    between atoms: O_44  and  C_116
REMARK   54  A    between atoms: O_44  and  C_117
REMARK   55  A    between atoms: C_45  and  C_47
REMARK   56  A    between atoms: C_45  and  C_150
REMARK   57  A    between atoms: O_46  and  C_118
REMARK   58  A    between atoms: O_46  and  C_119
REMARK   59  A    between atoms: O_48  and  C_120
REMARK   60  A    between atoms: O_48  and  C_121
REMARK   61  A    between atoms: O_50  and  C_122
REMARK   62  A    between atoms: O_50  and  C_123
REMARK   63  A    between atoms: C_51  and  C_53
REMARK   64  A    between atoms: O_52  and  C_124
REMARK   65  A    between atoms: O_52  and  C_125
REMARK   66  A    between atoms: O_54  and  C_126
REMARK   67  A    between atoms: O_54  and  C_127
REMARK   68  A    between atoms: C_55  and  C_57
REMARK   69  A    between atoms: O_56  and  C_128
REMARK   70  A    between atoms: O_56  and  C_129
REMARK   71  A    between atoms: O_58  and  C_130
REMARK   72  A    between atoms: O_58  and  C_131
REMARK   73  A    between atoms: C_59  and  C_61
REMARK   74  A    between atoms: O_60  and  C_132
REMARK   75  A    between atoms: O_60  and  C_133
REMARK   76  A    between atoms: O_62  and  C_134
REMARK   77  A    between atoms: O_62  and  C_135
REMARK   78  A    between atoms: C_63  and  C_65
REMARK   79  A    between atoms: O_66  and  C_180
REMARK   80  A    between atoms: O_66  and  C_181
REMARK   81  A    between atoms: C_67  and  C_69
REMARK   82  A    between atoms: O_68  and  C_182
REMARK   83  A    between atoms: O_68  and  C_183
REMARK   84  A    between atoms: O_70  and  C_184
REMARK   85  A    between atoms: O_70  and  C_185
REMARK   86  A    between atoms: C_71  and  C_73
REMARK   87  A    between atoms: O_72  and  C_186
REMARK   88  A    between atoms: O_72  and  C_187
REMARK   89  A    between atoms: O_74  and  C_188
REMARK   90  A    between atoms: O_74  and  C_189
REMARK   91  A    between atoms: C_75  and  C_77
REMARK   92  A    between atoms: O_76  and  C_190
REMARK   93  A    between atoms: O_76  and  C_191
REMARK   94  A    between atoms: O_78  and  C_192
REMARK   95  A    between atoms: O_78  and  C_193
REMARK   96  A    between atoms: C_79  and  C_81
REMARK   97  A    between atoms: O_80  and  C_194
REMARK   98  A    between atoms: O_80  and  C_195
REMARK   99  A    between atoms: O_82  and  C_196
REMARK  100  A    between atoms: O_82  and  C_197
REMARK  101  A    between atoms: C_83  and  C_85
REMARK  102  A    between atoms: O_84  and  C_198
REMARK  103  A    between atoms: O_84  and  C_199
REMARK  104  A    between atoms: C_87  and  C_89
REMARK  105  A    between atoms: O_88  and  C_215
REMARK  106  A    between atoms: O_88  and  C_216
REMARK  107  A    between atoms: O_90  and  C_217
REMARK  108  A    between atoms: O_90  and  C_218
REMARK  109  A    between atoms: O_92  and  C_219
REMARK  110  A    between atoms: O_92  and  C_220
REMARK  111  A    between atoms: O_94  and  C_221
REMARK  112  A    between atoms: O_94  and  C_222
REMARK  113  A    between atoms: O_96  and  C_223
REMARK  114  A    between atoms: O_96  and  C_224
REMARK  115  A    between atoms: C_97  and  C_99
REMARK  116  A    between atoms: O_98  and  C_225
REMARK  117  A    between atoms: O_98  and  C_226
REMARK  118  A    between atoms: C_99  and  C_105
REMARK  119  A    between atoms: O_100  and  C_227
REMARK  120  A    between atoms: O_100  and  C_228
REMARK  121  A    between atoms: O_102  and  C_229
REMARK  122  A    between atoms: O_102  and  C_230
REMARK  123  A    between atoms: O_104  and  C_231
REMARK  124  A    between atoms: O_104  and  C_232
REMARK  125  A    between atoms: C_105  and  C_107
REMARK  126  A    between atoms: O_106  and  C_233
REMARK  127  A    between atoms: O_106  and  C_234
REMARK  128  A    between atoms: C_117  and  C_118
REMARK  129  A    between atoms: C_119  and  C_120
REMARK  130  A    between atoms: C_121  and  C_122
REMARK  131  A    between atoms: C_123  and  C_124
REMARK  132  A    between atoms: C_125  and  C_126
REMARK  133  A    between atoms: C_127  and  C_128
REMARK  134  A    between atoms: C_129  and  C_130
REMARK  135  A    between atoms: C_131  and  C_132
REMARK  136  A    between atoms: C_133  and  C_134
REMARK  137  A    between atoms: C_135  and  C_136
REMARK  138  A    between atoms: C_138  and  C_139
REMARK  139  A    between atoms: C_139  and  C_142
REMARK  140  A    between atoms: C_142  and  C_145
REMARK  141  A    between atoms: C_150  and  C_151
REMARK  142  A    between atoms: C_151  and  C_152
REMARK  143  A    between atoms: C_152  and  C_155
REMARK  144  A    between atoms: C_155  and  C_158
REMARK  145  A    between atoms: C_163  and  C_164
REMARK  146  A    between atoms: C_166  and  C_167
REMARK  147  A    between atoms: C_167  and  C_168
REMARK  148  A    between atoms: C_168  and  C_171
REMARK  149  A    between atoms: C_178  and  C_179
REMARK  150  A    between atoms: C_179  and  C_180
REMARK  151  A    between atoms: C_179  and  C_214
REMARK  152  A    between atoms: C_181  and  C_182
REMARK  153  A    between atoms: C_183  and  C_184
REMARK  154  A    between atoms: C_185  and  C_186
REMARK  155  A    between atoms: C_187  and  C_188
REMARK  156  A    between atoms: C_189  and  C_190
REMARK  157  A    between atoms: C_191  and  C_192
REMARK  158  A    between atoms: C_193  and  C_194
REMARK  159  A    between atoms: C_195  and  C_196
REMARK  160  A    between atoms: C_197  and  C_198
REMARK  161  A    between atoms: C_199  and  C_200
REMARK  162  A    between atoms: C_203  and  C_204
REMARK  163  A    between atoms: C_203  and  C_214
REMARK  164  A    between atoms: C_204  and  C_207
REMARK  165  A    between atoms: C_207  and  C_210
REMARK  166  A    between atoms: C_216  and  C_217
REMARK  167  A    between atoms: C_218  and  C_219
REMARK  168  A    between atoms: C_220  and  C_221
REMARK  169  A    between atoms: C_222  and  C_223
REMARK  170  A    between atoms: C_224  and  C_225
REMARK  171  A    between atoms: C_226  and  C_227
REMARK  172  A    between atoms: C_228  and  C_229
REMARK  173  A    between atoms: C_230  and  C_231
REMARK  174  A    between atoms: C_232  and  C_233
REMARK  175  A    between atoms: C_234  and  C_235
REMARK                            x       y       z     vdW  Elec       q    Type
REMARK                         _______ _______ _______ _____ _____    ______ ____
ROOT
ATOM      1  C   UNL     1     -14.425  10.702  24.828  0.00  0.00    +0.000 C 
ENDROOT
BRANCH   1   2
ATOM      2  C   UNL     1     -12.628  10.027  25.207  0.00  0.00    +0.000 C 
BRANCH   2   3
ATOM      3  C   UNL     1     -12.420   8.502  25.480  0.00  0.00    +0.000 C 
ATOM      4  C   UNL     1     -11.896   8.214  27.023  0.00  0.00    +0.000 C 
ATOM      5  C   UNL     1     -10.380   8.085  27.096  0.00  0.00    +0.000 C 
ATOM      6  C   UNL     1      -9.949   6.632  26.227  0.00  0.00    +0.000 C 
ATOM      7  C   UNL     1      -9.876   6.644  24.754  0.00  0.00    +0.000 C 
ATOM      8  C   UNL     1     -11.317   7.444  24.122  0.00  0.00    +0.000 C 
BRANCH   5   9
ATOM      9  C   UNL     1      -9.846   8.090  28.632  0.00  0.00    +0.000 C 
ATOM     10  C   UNL     1     -10.804   8.105  29.382  0.00  0.00    +0.000 C 
ATOM     11  C   UNL     1      -8.810   6.888  28.738  0.00  0.00    +0.000 C 
BRANCH   9  12
ATOM     12  C   UNL     1      -8.893   9.385  28.971  0.00  0.00    +0.000 C 
ATOM     13  C   UNL     1      -7.590   9.350  28.132  0.00  0.00    +0.000 C 
ATOM     14  C   UNL     1      -8.144   9.203  30.493  0.00  0.00    +0.000 C 
BRANCH  12  15
ATOM     15  C   UNL     1      -9.482  10.750  29.138  0.00  0.00    +0.000 C 
ATOM     16  C   UNL     1      -8.295  11.560  28.635  0.00  0.00    +0.000 C 
ATOM     17  C   UNL     1      -9.737  11.212  30.517  0.00  0.00    +0.000 C 
ATOM     18  C   UNL     1     -10.708  10.953  28.354  0.00  0.00    +0.000 C 
ENDBRANCH  12  15
ENDBRANCH   9  12
ENDBRANCH   5   9
BRANCH   7  19
ATOM     19  C   UNL     1      -9.114   5.430  24.073  0.00  0.00    +0.000 C 
BRANCH  19  20
ATOM     20  C   UNL     1     -10.066   4.260  23.634  0.00  0.00    +0.000 C 
ATOM     21  C   UNL     1     -11.254   4.028  24.652  0.00  0.00    +0.000 C 
BRANCH  20  22
ATOM     22  O   UNL     1     -10.758   4.648  22.390  0.00  0.00    +0.000 OA
BRANCH  22  23
ATOM     23  C   UNL     1     -10.999   3.605  21.487  0.00  0.00    +0.000 C 
BRANCH  23  24
ATOM     24  C   UNL     1     -11.049   4.138  20.062  0.00  0.00    +0.000 C 
BRANCH  24  25
ATOM     25  O   UNL     1     -12.364   4.108  19.613  0.00  0.00    +0.000 OA
BRANCH  25  26
ATOM     26  C   UNL     1     -12.507   3.465  18.356  0.00  0.00    +0.000 C 
BRANCH  26  27
ATOM     27  C   UNL     1     -13.367   4.248  17.461  0.00  0.00    +0.000 C 
BRANCH  27  28
ATOM     28  O   UNL     1     -12.773   4.341  16.220  0.00  0.00    +0.000 OA
BRANCH  28  29
ATOM     29  C   UNL     1     -11.624   3.534  16.055  0.00  0.00    +0.000 C 
BRANCH  29  30
ATOM     30  C   UNL     1     -11.032   3.794  14.690  0.00  0.00    +0.000 C 
BRANCH  30  31
ATOM     31  O   UNL     1      -9.669   3.510  14.753  0.00  0.00    +0.000 OA
BRANCH  31  32
ATOM     32  C   UNL     1      -8.989   3.962  13.568  0.00  0.00    +0.000 C 
BRANCH  32  33
ATOM     33  C   UNL     1      -9.987   4.788  12.741  0.00  0.00    +0.000 C 
BRANCH  33  34
ATOM     34  O   UNL     1      -9.293   5.405  11.705  0.00  0.00    +0.000 OA
BRANCH  34  35
ATOM     35  C   UNL     1      -9.037   4.549  10.574  0.00  0.00    +0.000 C 
BRANCH  35  36
ATOM     36  C   UNL     1     -10.025   4.766   9.467  0.00  0.00    +0.000 C 
BRANCH  36  37
ATOM     37  O   UNL     1      -9.255   5.142   8.287  0.00  0.00    +0.000 OA
BRANCH  37  38
ATOM     38  C   UNL     1     -10.060   5.849   7.377  0.00  0.00    +0.000 C 
BRANCH  38  39
ATOM     39  C   UNL     1     -11.500   5.809   7.700  0.00  0.00    +0.000 C 
BRANCH  39  40
ATOM     40  O   UNL     1     -12.194   5.051   6.601  0.00  0.00    +0.000 OA
BRANCH  40  41
ATOM     41  C   UNL     1     -13.552   4.816   6.893  0.00  0.00    +0.000 C 
BRANCH  41  42
ATOM     42  C   UNL     1     -14.036   3.557   6.262  0.00  0.00    +0.000 C 
BRANCH  42  43
ATOM     43  O   UNL     1     -13.539   2.456   6.913  0.00  0.00    +0.000 OA
BRANCH  43  44
ATOM     44  C   UNL     1     -13.901   2.314   8.257  0.00  0.00    +0.000 C 
BRANCH  44  45
ATOM     45  C   UNL     1     -15.284   1.788   8.412  0.00  0.00    +0.000 C 
BRANCH  45  46
ATOM     46  O   UNL     1     -15.182   0.408   8.777  0.00  0.00    +0.000 OA
BRANCH  46  47
ATOM     47  C   UNL     1     -16.176   0.102   9.740  0.00  0.00    +0.000 C 
BRANCH  47  48
ATOM     48  C   UNL     1     -15.526  -0.849  10.830  0.00  0.00    +0.000 C 
BRANCH  48  49
ATOM     49  O   UNL     1     -14.467  -0.195  11.437  0.00  0.00    +0.000 OA
BRANCH  49  50
ATOM     50  C   UNL     1     -14.443  -0.238  12.825  0.00  0.00    +0.000 C 
BRANCH  50  52
ATOM     51  O   UNL     1     -12.844  -2.007  12.842  0.00  0.00    +0.000 OA
ATOM     52  C   UNL     1     -14.174  -1.683  13.292  0.00  0.00    +0.000 C 
ENDBRANCH  50  52
ENDBRANCH  49  50
ENDBRANCH  48  49
ENDBRANCH  47  48
ENDBRANCH  46  47
ENDBRANCH  45  46
ENDBRANCH  44  45
ENDBRANCH  43  44
ENDBRANCH  42  43
ENDBRANCH  41  42
ENDBRANCH  40  41
ENDBRANCH  39  40
ENDBRANCH  38  39
ENDBRANCH  37  38
ENDBRANCH  36  37
ENDBRANCH  35  36
ENDBRANCH  34  35
ENDBRANCH  33  34
ENDBRANCH  32  33
ENDBRANCH  31  32
ENDBRANCH  30  31
ENDBRANCH  29  30
ENDBRANCH  28  29
ENDBRANCH  27  28
ENDBRANCH  26  27
ENDBRANCH  25  26
ENDBRANCH  24  25
ENDBRANCH  23  24
ENDBRANCH  22  23
ENDBRANCH  20  22
ENDBRANCH  19  20
BRANCH  19  53
ATOM     53  C   UNL     1      -8.230   5.752  22.759  0.00  0.00    +0.000 C 
BRANCH  53  55
ATOM     54  C   UNL     1      -6.992   4.397  21.256  0.00  0.00    +0.000 C 
ATOM     55  C   UNL     1      -7.003   5.361  22.387  0.00  0.00    +0.000 C 
BRANCH  55  56
ATOM     56  C   UNL     1      -5.696   5.823  23.027  0.00  0.00    +0.000 C 
ATOM     57  C   UNL     1      -5.483   7.164  22.411  0.00  0.00    +0.000 C 
ATOM     58  C   UNL     1      -5.913   6.029  24.498  0.00  0.00    +0.000 C 
BRANCH  56  59
ATOM     59  C   UNL     1      -4.534   4.823  22.745  0.00  0.00    +0.000 C 
ATOM     60  C   UNL     1      -4.098   4.847  21.332  0.00  0.00    +0.000 C 
ATOM     61  C   UNL     1      -5.048   3.408  23.099  0.00  0.00    +0.000 C 
BRANCH  59  62
ATOM     62  C   UNL     1      -3.238   5.057  23.649  0.00  0.00    +0.000 C 
ATOM     63  C   UNL     1      -2.841   6.491  23.649  0.00  0.00    +0.000 C 
ATOM     64  C   UNL     1      -2.068   4.308  23.060  0.00  0.00    +0.000 C 
ATOM     65  C   UNL     1      -3.365   4.558  25.006  0.00  0.00    +0.000 C 
ENDBRANCH  59  62
ENDBRANCH  56  59
ENDBRANCH  55  56
ENDBRANCH  53  55
ENDBRANCH  19  53
ENDBRANCH   7  19
BRANCH   8  66
ATOM     66  O   UNL     1     -11.767   7.431  22.833  0.00  0.00    +0.000 OA
BRANCH  66  67
ATOM     67  C   UNL     1     -11.396   8.535  22.041  0.00  0.00    +0.000 C 
BRANCH  67  68
ATOM     68  C   UNL     1     -12.380   8.969  20.932  0.00  0.00    +0.000 C 
BRANCH  68  69
ATOM     69  O   UNL     1     -13.277   7.921  20.688  0.00  0.00    +0.000 OA
BRANCH  69  70
ATOM     70  C   UNL     1     -14.651   8.251  21.072  0.00  0.00    +0.000 C 
BRANCH  70  71
ATOM     71  C   UNL     1     -15.116   9.523  20.385  0.00  0.00    +0.000 C 
BRANCH  71  72
ATOM     72  O   UNL     1     -15.888   9.147  19.106  0.00  0.00    +0.000 OA
BRANCH  72  73
ATOM     73  C   UNL     1     -16.288   7.783  19.139  0.00  0.00    +0.000 C 
BRANCH  73  74
ATOM     74  C   UNL     1     -17.709   7.697  19.710  0.00  0.00    +0.000 C 
BRANCH  74  75
ATOM     75  O   UNL     1     -18.643   7.471  18.702  0.00  0.00    +0.000 OA
BRANCH  75  76
ATOM     76  C   UNL     1     -19.307   8.665  18.268  0.00  0.00    +0.000 C 
BRANCH  76  77
ATOM     77  C   UNL     1     -20.793   8.465  18.140  0.00  0.00    +0.000 C 
BRANCH  77  78
ATOM     78  O   UNL     1     -21.204   9.401  17.154  0.00  0.00    +0.000 OA
BRANCH  78  79
ATOM     79  C   UNL     1     -22.578   9.192  16.686  0.00  0.00    +0.000 C 
BRANCH  79  80
ATOM     80  C   UNL     1     -22.964   7.825  17.104  0.00  0.00    +0.000 C 
BRANCH  80  81
ATOM     81  O   UNL     1     -24.214   7.801  17.844  0.00  0.00    +0.000 OA
BRANCH  81  82
ATOM     82  C   UNL     1     -25.280   7.266  17.128  0.00  0.00    +0.000 C 
BRANCH  82  83
ATOM     83  C   UNL     1     -25.435   5.763  17.434  0.00  0.00    +0.000 C 
BRANCH  83  84
ATOM     84  O   UNL     1     -24.787   5.438  18.641  0.00  0.00    +0.000 OA
BRANCH  84  85
ATOM     85  C   UNL     1     -24.056   4.318  18.675  0.00  0.00    +0.000 C 
BRANCH  85  86
ATOM     86  C   UNL     1     -23.392   4.059  17.307  0.00  0.00    +0.000 C 
BRANCH  86  87
ATOM     87  O   UNL     1     -23.378   2.702  16.947  0.00  0.00    +0.000 OA
BRANCH  87  88
ATOM     88  C   UNL     1     -24.616   2.194  16.594  0.00  0.00    +0.000 C 
BRANCH  88  89
ATOM     89  C   UNL     1     -24.704   1.945  15.097  0.00  0.00    +0.000 C 
BRANCH  89  90
ATOM     90  O   UNL     1     -26.043   1.610  14.749  0.00  0.00    +0.000 OA
BRANCH  90  91
ATOM     91  C   UNL     1     -26.068   0.261  14.240  0.00  0.00    +0.000 C 
BRANCH  91  92
ATOM     92  C   UNL     1     -26.676   0.306  12.860  0.00  0.00    +0.000 C 
BRANCH  92  93
ATOM     93  O   UNL     1     -27.049   1.652  12.576  0.00  0.00    +0.000 OA
BRANCH  93  94
ATOM     94  C   UNL     1     -26.458   2.157  11.441  0.00  0.00    +0.000 C 
BRANCH  94  96
ATOM     95  O   UNL     1     -24.422   3.433  11.485  0.00  0.00    +0.000 OA
ATOM     96  C   UNL     1     -25.802   3.511  11.730  0.00  0.00    +0.000 C 
ENDBRANCH  94  96
ENDBRANCH  93  94
ENDBRANCH  92  93
ENDBRANCH  91  92
ENDBRANCH  90  91
ENDBRANCH  89  90
ENDBRANCH  88  89
ENDBRANCH  87  88
ENDBRANCH  86  87
ENDBRANCH  85  86
ENDBRANCH  84  85
ENDBRANCH  83  84
ENDBRANCH  82  83
ENDBRANCH  81  82
ENDBRANCH  80  81
ENDBRANCH  79  80
ENDBRANCH  78  79
ENDBRANCH  77  78
ENDBRANCH  76  77
ENDBRANCH  75  76
ENDBRANCH  74  75
ENDBRANCH  73  74
ENDBRANCH  72  73
ENDBRANCH  71  72
ENDBRANCH  70  71
ENDBRANCH  69  70
ENDBRANCH  68  69
ENDBRANCH  67  68
ENDBRANCH  66  67
ENDBRANCH   8  66
ENDBRANCH   2   3
ENDBRANCH   1   2
BRANCH   1  97
ATOM     97  C   UNL     1     -14.845  12.154  24.702  0.00  0.00    +0.000 C 
BRANCH  97  98
ATOM     98  C   UNL     1     -16.450  12.321  24.584  0.00  0.00    +0.000 C 
ATOM     99  C   UNL     1     -17.101  12.752  25.932  0.00  0.00    +0.000 C 
ATOM    100  C   UNL     1     -18.682  12.943  25.933  0.00  0.00    +0.000 C 
ATOM    101  C   UNL     1     -19.989  13.231  26.529  0.00  0.00    +0.000 C 
ATOM    102  C   UNL     1     -21.294  12.541  26.207  0.00  0.00    +0.000 C 
ATOM    103  C   UNL     1     -22.520  12.873  26.901  0.00  0.00    +0.000 C 
ATOM    104  C   UNL     1     -22.414  13.843  27.958  0.00  0.00    +0.000 C 
ATOM    105  C   UNL     1     -21.261  14.566  28.239  0.00  0.00    +0.000 C 
ATOM    106  C   UNL     1     -20.182  14.214  27.486  0.00  0.00    +0.000 C 
ATOM    107  C   UNL     1     -18.996  12.503  25.290  0.00  0.00    +0.000 C 
ATOM    108  C   UNL     1     -18.714  12.198  24.004  0.00  0.00    +0.000 C 
ATOM    109  C   UNL     1     -17.302  12.429  23.445  0.00  0.00    +0.000 C 
BRANCH 103 110
ATOM    110  C   UNL     1     -23.828  12.221  26.460  0.00  0.00    +0.000 C 
ATOM    111  C   UNL     1     -24.926  13.103  27.121  0.00  0.00    +0.000 C 
ATOM    112  C   UNL     1     -24.005  12.409  25.025  0.00  0.00    +0.000 C 
BRANCH 110 113
ATOM    113  C   UNL     1     -24.145  10.747  26.800  0.00  0.00    +0.000 C 
ATOM    114  C   UNL     1     -25.632  10.654  26.927  0.00  0.00    +0.000 C 
ATOM    115  C   UNL     1     -23.640   9.853  25.662  0.00  0.00    +0.000 C 
BRANCH 113 116
ATOM    116  C   UNL     1     -23.437  10.191  28.116  0.00  0.00    +0.000 C 
ATOM    117  C   UNL     1     -24.072   8.891  28.568  0.00  0.00    +0.000 C 
ATOM    118  C   UNL     1     -23.658  11.116  29.258  0.00  0.00    +0.000 C 
ATOM    119  C   UNL     1     -21.957  10.032  27.906  0.00  0.00    +0.000 C 
ENDBRANCH 113 116
ENDBRANCH 110 113
ENDBRANCH 103 110
BRANCH 108 120
ATOM    120  C   UNL     1     -19.606  11.102  23.312  0.00  0.00    +0.000 C 
ATOM    121  C   UNL     1     -20.293  10.318  24.443  0.00  0.00    +0.000 C 
ATOM    122  C   UNL     1     -18.680  10.133  22.671  0.00  0.00    +0.000 C 
BRANCH 120 123
ATOM    123  C   UNL     1     -20.850  11.606  22.389  0.00  0.00    +0.000 C 
ATOM    124  C   UNL     1     -21.970  10.664  22.349  0.00  0.00    +0.000 C 
ATOM    125  C   UNL     1     -21.431  12.887  22.934  0.00  0.00    +0.000 C 
BRANCH 123 126
ATOM    126  C   UNL     1     -20.494  11.814  20.877  0.00  0.00    +0.000 C 
ATOM    127  C   UNL     1     -19.292  10.994  20.564  0.00  0.00    +0.000 C 
ATOM    128  C   UNL     1     -20.092  13.239  20.609  0.00  0.00    +0.000 C 
ATOM    129  C   UNL     1     -21.667  11.531  20.017  0.00  0.00    +0.000 C 
ENDBRANCH 123 126
ENDBRANCH 120 123
ENDBRANCH 108 120
BRANCH 106 130
ATOM    130  O   UNL     1     -19.066  15.016  27.542  0.00  0.00    +0.000 OA
BRANCH 130 131
ATOM    131  C   UNL     1     -18.904  15.934  28.650  0.00  0.00    +0.000 C 
BRANCH 131 132
ATOM    132  C   UNL     1     -17.707  16.811  28.333  0.00  0.00    +0.000 C 
BRANCH 132 133
ATOM    133  O   UNL     1     -17.916  17.495  27.147  0.00  0.00    +0.000 OA
BRANCH 133 134
ATOM    134  C   UNL     1     -18.910  18.502  27.249  0.00  0.00    +0.000 C 
BRANCH 134 135
ATOM    135  C   UNL     1     -19.921  18.322  26.171  0.00  0.00    +0.000 C 
BRANCH 135 136
ATOM    136  O   UNL     1     -19.358  17.786  25.328  0.00  0.00    +0.000 OA
BRANCH 136 137
ATOM    137  C   UNL     1     -20.125  16.828  24.687  0.00  0.00    +0.000 C 
BRANCH 137 138
ATOM    138  C   UNL     1     -19.298  15.918  23.716  0.00  0.00    +0.000 C 
BRANCH 138 139
ATOM    139  O   UNL     1     -18.030  15.873  24.185  0.00  0.00    +0.000 OA
BRANCH 139 140
ATOM    140  C   UNL     1     -17.045  16.092  23.152  0.00  0.00    +0.000 C 
BRANCH 140 141
ATOM    141  C   UNL     1     -17.614  17.013  22.118  0.00  0.00    +0.000 C 
BRANCH 141 142
ATOM    142  O   UNL     1     -16.613  17.367  21.190  0.00  0.00    +0.000 OA
BRANCH 142 143
ATOM    143  C   UNL     1     -16.994  17.139  19.835  0.00  0.00    +0.000 C 
BRANCH 143 144
ATOM    144  C   UNL     1     -15.840  16.426  19.081  0.00  0.00    +0.000 C 
BRANCH 144 145
ATOM    145  O   UNL     1     -15.440  17.158  17.910  0.00  0.00    +0.000 OA
BRANCH 145 146
ATOM    146  C   UNL     1     -15.945  16.745  16.632  0.00  0.00    +0.000 C 
BRANCH 146 147
ATOM    147  C   UNL     1     -15.015  17.111  15.502  0.00  0.00    +0.000 C 
BRANCH 147 148
ATOM    148  O   UNL     1     -15.201  18.509  15.214  0.00  0.00    +0.000 OA
BRANCH 148 149
ATOM    149  C   UNL     1     -16.516  18.879  14.831  0.00  0.00    +0.000 C 
BRANCH 149 150
ATOM    150  C   UNL     1     -16.729  18.567  13.364  0.00  0.00    +0.000 C 
BRANCH 150 151
ATOM    151  O   UNL     1     -17.740  17.556  13.260  0.00  0.00    +0.000 OA
BRANCH 151 152
ATOM    152  C   UNL     1     -18.757  17.604  14.199  0.00  0.00    +0.000 C 
BRANCH 152 153
ATOM    153  C   UNL     1     -20.122  17.673  13.541  0.00  0.00    +0.000 C 
BRANCH 153 154
ATOM    154  O   UNL     1     -21.116  17.245  14.470  0.00  0.00    +0.000 OA
BRANCH 154 155
ATOM    155  C   UNL     1     -22.342  17.906  14.345  0.00  0.00    +0.000 C 
BRANCH 155 156
ATOM    156  C   UNL     1     -23.431  16.926  13.839  0.00  0.00    +0.000 C 
BRANCH 156 157
ATOM    157  O   UNL     1     -23.889  17.419  12.576  0.00  0.00    +0.000 OA
BRANCH 157 158
ATOM    158  C   UNL     1     -23.208  16.851  11.488  0.00  0.00    +0.000 C 
BRANCH 158 160
ATOM    159  O   UNL     1     -21.919  14.740  11.476  0.00  0.00    +0.000 OA
ATOM    160  C   UNL     1     -23.281  15.404  11.707  0.00  0.00    +0.000 C 
ENDBRANCH 158 160
ENDBRANCH 157 158
ENDBRANCH 156 157
ENDBRANCH 155 156
ENDBRANCH 154 155
ENDBRANCH 153 154
ENDBRANCH 152 153
ENDBRANCH 151 152
ENDBRANCH 150 151
ENDBRANCH 149 150
ENDBRANCH 148 149
ENDBRANCH 147 148
ENDBRANCH 146 147
ENDBRANCH 145 146
ENDBRANCH 144 145
ENDBRANCH 143 144
ENDBRANCH 142 143
ENDBRANCH 141 142
ENDBRANCH 140 141
ENDBRANCH 139 140
ENDBRANCH 138 139
ENDBRANCH 137 138
ENDBRANCH 136 137
ENDBRANCH 135 136
ENDBRANCH 134 135
ENDBRANCH 133 134
ENDBRANCH 132 133
ENDBRANCH 131 132
ENDBRANCH 130 131
ENDBRANCH 106 130
BRANCH  99 161
ATOM    161  O   UNL     1     -16.620  12.252  27.117  0.00  0.00    +0.000 OA
BRANCH 161 162
ATOM    162  C   UNL     1     -16.635  13.075  28.289  0.00  0.00    +0.000 C 
BRANCH 162 163
ATOM    163  C   UNL     1     -17.305  12.467  29.511  0.00  0.00    +0.000 C 
BRANCH 163 164
ATOM    164  O   UNL     1     -17.370  13.401  30.546  0.00  0.00    +0.000 OA
BRANCH 164 165
ATOM    165  C   UNL     1     -18.180  13.039  31.632  0.00  0.00    +0.000 C 
BRANCH 165 166
ATOM    166  C   UNL     1     -18.432  11.531  31.716  0.00  0.00    +0.000 C 
BRANCH 166 167
ATOM    167  O   UNL     1     -19.331  11.263  32.822  0.00  0.00    +0.000 OA
BRANCH 167 168
ATOM    168  C   UNL     1     -19.085   9.987  33.373  0.00  0.00    +0.000 C 
BRANCH 168 169
ATOM    169  C   UNL     1     -17.680   9.511  33.033  0.00  0.00    +0.000 C 
BRANCH 169 170
ATOM    170  O   UNL     1     -16.964   9.248  34.200  0.00  0.00    +0.000 OA
BRANCH 170 171
ATOM    171  C   UNL     1     -15.678   8.709  33.967  0.00  0.00    +0.000 C 
BRANCH 171 172
ATOM    172  C   UNL     1     -15.547   8.150  32.514  0.00  0.00    +0.000 C 
BRANCH 172 173
ATOM    173  O   UNL     1     -15.518   6.736  32.608  0.00  0.00    +0.000 OA
BRANCH 173 174
ATOM    174  C   UNL     1     -16.650   6.162  31.885  0.00  0.00    +0.000 C 
BRANCH 174 175
ATOM    175  C   UNL     1     -17.739   5.764  32.880  0.00  0.00    +0.000 C 
BRANCH 175 176
ATOM    176  O   UNL     1     -18.103   4.448  32.615  0.00  0.00    +0.000 OA
BRANCH 176 177
ATOM    177  C   UNL     1     -18.830   3.863  33.683  0.00  0.00    +0.000 C 
BRANCH 177 178
ATOM    178  C   UNL     1     -18.008   2.680  34.179  0.00  0.00    +0.000 C 
BRANCH 178 179
ATOM    179  O   UNL     1     -18.852   1.762  34.850  0.00  0.00    +0.000 OA
BRANCH 179 180
ATOM    180  C   UNL     1     -19.966   1.315  34.032  0.00  0.00    +0.000 C 
BRANCH 180 181
ATOM    181  C   UNL     1     -19.931  -0.208  33.898  0.00  0.00    +0.000 C 
BRANCH 181 182
ATOM    182  O   UNL     1     -18.994  -0.592  32.930  0.00  0.00    +0.000 OA
BRANCH 182 183
ATOM    183  C   UNL     1     -18.914  -2.052  32.774  0.00  0.00    +0.000 C 
BRANCH 183 184
ATOM    184  C   UNL     1     -17.758  -2.693  33.543  0.00  0.00    +0.000 C 
BRANCH 184 185
ATOM    185  O   UNL     1     -17.275  -3.724  32.745  0.00  0.00    +0.000 OA
BRANCH 185 186
ATOM    186  C   UNL     1     -18.154  -4.039  31.651  0.00  0.00    +0.000 C 
BRANCH 186 187
ATOM    187  C   UNL     1     -17.515  -5.053  30.729  0.00  0.00    +0.000 C 
BRANCH 187 188
ATOM    188  O   UNL     1     -16.983  -4.271  29.580  0.00  0.00    +0.000 OA
BRANCH 188 189
ATOM    189  C   UNL     1     -18.068  -3.847  28.728  0.00  0.00    +0.000 C 
BRANCH 189 191
ATOM    190  O   UNL     1     -17.706  -1.563  29.238  0.00  0.00    +0.000 OA
ATOM    191  C   UNL     1     -17.703  -2.480  28.195  0.00  0.00    +0.000 C 
ENDBRANCH 189 191
ENDBRANCH 188 189
ENDBRANCH 187 188
ENDBRANCH 186 187
ENDBRANCH 185 186
ENDBRANCH 184 185
ENDBRANCH 183 184
ENDBRANCH 182 183
ENDBRANCH 181 182
ENDBRANCH 180 181
ENDBRANCH 179 180
ENDBRANCH 178 179
ENDBRANCH 177 178
ENDBRANCH 176 177
ENDBRANCH 175 176
ENDBRANCH 174 175
ENDBRANCH 173 174
ENDBRANCH 172 173
ENDBRANCH 171 172
ENDBRANCH 170 171
ENDBRANCH 169 170
ENDBRANCH 168 169
ENDBRANCH 167 168
ENDBRANCH 166 167
ENDBRANCH 165 166
ENDBRANCH 164 165
ENDBRANCH 163 164
ENDBRANCH 162 163
ENDBRANCH 161 162
ENDBRANCH  99 161
ENDBRANCH  97  98
BRANCH  97 192
ATOM    192  C   UNL     1     -13.832  12.679  25.562  0.00  0.00    +0.000 C 
BRANCH 192 193
ATOM    193  C   UNL     1     -13.609  14.064  25.894  0.00  0.00    +0.000 C 
ATOM    194  C   UNL     1     -13.893  15.134  24.950  0.00  0.00    +0.000 C 
BRANCH 193 195
ATOM    195  C   UNL     1     -13.059  14.473  27.200  0.00  0.00    +0.000 C 
ATOM    196  C   UNL     1     -14.003  15.551  27.758  0.00  0.00    +0.000 C 
ATOM    197  C   UNL     1     -13.077  13.314  28.206  0.00  0.00    +0.000 C 
BRANCH 195 198
ATOM    198  C   UNL     1     -11.558  15.047  27.025  0.00  0.00    +0.000 C 
ATOM    199  C   UNL     1     -11.075  14.895  25.650  0.00  0.00    +0.000 C 
ATOM    200  C   UNL     1     -10.624  14.358  27.965  0.00  0.00    +0.000 C 
BRANCH 198 201
ATOM    201  C   UNL     1     -11.296  16.565  27.353  0.00  0.00    +0.000 C 
ATOM    202  C   UNL     1     -11.164  16.838  28.820  0.00  0.00    +0.000 C 
ATOM    203  C   UNL     1     -12.417  17.456  26.888  0.00  0.00    +0.000 C 
ATOM    204  C   UNL     1     -10.021  16.983  26.792  0.00  0.00    +0.000 C 
ENDBRANCH 198 201
ENDBRANCH 195 198
ENDBRANCH 193 195
ENDBRANCH 192 193
ENDBRANCH  97 192
ENDBRANCH   1  97
BRANCH   1 205
ATOM    205  O   UNL     1     -15.024  10.081  25.946  0.00  0.00    +0.000 OA
BRANCH 205 206
ATOM    206  C   UNL     1     -16.056   9.184  25.606  0.00  0.00    +0.000 C 
BRANCH 206 207
ATOM    207  C   UNL     1     -16.931   8.867  26.785  0.00  0.00    +0.000 C 
BRANCH 207 208
ATOM    208  O   UNL     1     -16.261   9.150  28.020  0.00  0.00    +0.000 OA
BRANCH 208 209
ATOM    209  C   UNL     1     -17.026   8.774  29.185  0.00  0.00    +0.000 C 
BRANCH 209 210
ATOM    210  C   UNL     1     -18.393   8.277  28.785  0.00  0.00    +0.000 C 
BRANCH 210 211
ATOM    211  C   UNL     1     -19.393   8.269  29.941  0.00  0.00    +0.000 C 
BRANCH 211 212
ATOM    212  C   UNL     1     -19.946   6.882  30.181  0.00  0.00    +0.000 C 
BRANCH 212 213
ATOM    213  C   UNL     1     -21.196   6.660  29.396  0.00  0.00    +0.000 C 
BRANCH 213 214
ATOM    214  O   UNL     1     -21.885   5.583  29.836  0.00  0.00    +0.000 OA
BRANCH 214 215
ATOM    215  C   UNL     1     -21.226   4.931  30.958  0.00  0.00    +0.000 C 
BRANCH 215 216
ATOM    216  C   UNL     1     -21.738   3.526  31.194  0.00  0.00    +0.000 C 
BRANCH 216 217
ATOM    217  O   UNL     1     -23.002   3.563  31.688  0.00  0.00    +0.000 OA
BRANCH 217 218
ATOM    218  C   UNL     1     -24.350   3.372  31.076  0.00  0.00    +0.000 C 
BRANCH 218 219
ATOM    219  C   UNL     1     -24.082   2.692  29.692  0.00  0.00    +0.000 C 
BRANCH 219 220
ATOM    220  O   UNL     1     -24.155   3.617  28.673  0.00  0.00    +0.000 OA
BRANCH 220 221
ATOM    221  C   UNL     1     -25.238   3.458  27.740  0.00  0.00    +0.000 C 
BRANCH 221 222
ATOM    222  C   UNL     1     -24.763   2.603  26.567  0.00  0.00    +0.000 C 
BRANCH 222 223
ATOM    223  O   UNL     1     -25.527   2.838  25.412  0.00  0.00    +0.000 OA
BRANCH 223 224
ATOM    224  C   UNL     1     -26.061   4.146  25.323  0.00  0.00    +0.000 C 
BRANCH 224 225
ATOM    225  C   UNL     1     -26.108   4.522  23.838  0.00  0.00    +0.000 C 
BRANCH 225 226
ATOM    226  O   UNL     1     -25.043   3.900  23.124  0.00  0.00    +0.000 OA
BRANCH 226 227
ATOM    227  C   UNL     1     -25.469   3.254  21.938  0.00  0.00    +0.000 C 
BRANCH 227 228
ATOM    228  C   UNL     1     -24.590   2.051  21.707  0.00  0.00    +0.000 C 
BRANCH 228 229
ATOM    229  O   UNL     1     -24.594   1.168  22.795  0.00  0.00    +0.000 OA
BRANCH 229 230
ATOM    230  C   UNL     1     -23.324   0.639  23.068  0.00  0.00    +0.000 C 
BRANCH 230 231
ATOM    231  C   UNL     1     -23.256  -0.803  22.665  0.00  0.00    +0.000 C 
BRANCH 231 232
ATOM    232  O   UNL     1     -23.345  -1.607  23.815  0.00  0.00    +0.000 OA
BRANCH 232 233
ATOM    233  C   UNL     1     -23.403  -2.986  23.530  0.00  0.00    +0.000 C 
BRANCH 233 234
ATOM    234  C   UNL     1     -22.929  -3.250  22.117  0.00  0.00    +0.000 C 
ATOM    235  O   UNL     1     -23.549  -4.421  21.636  0.00  0.00    +0.000 OA
ENDBRANCH 233 234
ENDBRANCH 232 233
ENDBRANCH 231 232
ENDBRANCH 230 231
ENDBRANCH 229 230
ENDBRANCH 228 229
ENDBRANCH 227 228
ENDBRANCH 226 227
ENDBRANCH 225 226
ENDBRANCH 224 225
ENDBRANCH 223 224
ENDBRANCH 222 223
ENDBRANCH 221 222
ENDBRANCH 220 221
ENDBRANCH 219 220
ENDBRANCH 218 219
ENDBRANCH 217 218
ENDBRANCH 216 217
ENDBRANCH 215 216
ENDBRANCH 214 215
ENDBRANCH 213 214
ENDBRANCH 212 213
ENDBRANCH 211 212
ENDBRANCH 210 211
ENDBRANCH 209 210
ENDBRANCH 208 209
ENDBRANCH 207 208
ENDBRANCH 206 207
ENDBRANCH 205 206
ENDBRANCH   1 205
TORSDOF 175
ENDMDL
MODEL 6
REMARK VINA RESULT:      -4.6      2.601      6.249
REMARK  Name = human_CD1d_Tyloxapol_pred.rank_0
REMARK  175 active torsions:
REMARK  status: ('A' for Active; 'I' for Inactive)
REMARK    1  A    between atoms: C_1  and  C_3
REMARK    2  A    between atoms: C_3  and  O_4
REMARK    3  A    between atoms: O_4  and  C_5
REMARK    4  A    between atoms: C_5  and  C_7
REMARK    5  A    between atoms: O_6  and  C_7
REMARK    6  A    between atoms: O_6  and  C_9
REMARK    7  A    between atoms: O_8  and  C_11
REMARK    8  A    between atoms: O_8  and  C_13
REMARK    9  A    between atoms: C_9  and  C_11
REMARK   10  A    between atoms: O_10  and  C_15
REMARK   11  A    between atoms: O_10  and  C_17
REMARK   12  A    between atoms: O_12  and  C_19
REMARK   13  A    between atoms: O_12  and  C_21
REMARK   14  A    between atoms: C_13  and  C_15
REMARK   15  A    between atoms: O_14  and  C_23
REMARK   16  A    between atoms: O_14  and  C_25
REMARK   17  A    between atoms: O_16  and  C_27
REMARK   18  A    between atoms: O_16  and  C_29
REMARK   19  A    between atoms: C_17  and  C_19
REMARK   20  A    between atoms: O_18  and  C_37
REMARK   21  A    between atoms: O_18  and  C_39
REMARK   22  A    between atoms: O_20  and  C_41
REMARK   23  A    between atoms: O_20  and  C_43
REMARK   24  A    between atoms: C_21  and  C_23
REMARK   25  A    between atoms: O_22  and  C_49
REMARK   26  A    between atoms: O_22  and  C_51
REMARK   27  A    between atoms: O_24  and  C_53
REMARK   28  A    between atoms: O_24  and  C_55
REMARK   29  A    between atoms: C_25  and  C_27
REMARK   30  A    between atoms: O_26  and  C_57
REMARK   31  A    between atoms: O_26  and  C_59
REMARK   32  A    between atoms: O_28  and  C_61
REMARK   33  A    between atoms: O_28  and  C_63
REMARK   34  A    between atoms: C_29  and  C_31
REMARK   35  A    between atoms: O_30  and  C_65
REMARK   36  A    between atoms: O_30  and  C_67
REMARK   37  A    between atoms: C_31  and  C_33
REMARK   38  A    between atoms: O_32  and  C_69
REMARK   39  A    between atoms: O_32  and  C_71
REMARK   40  A    between atoms: C_33  and  C_35
REMARK   41  A    between atoms: O_34  and  C_73
REMARK   42  A    between atoms: O_34  and  C_75
REMARK   43  A    between atoms: C_35  and  C_37
REMARK   44  A    between atoms: O_36  and  C_77
REMARK   45  A    between atoms: O_36  and  C_79
REMARK   46  A    between atoms: O_38  and  C_81
REMARK   47  A    between atoms: O_38  and  C_83
REMARK   48  A    between atoms: C_39  and  C_41
REMARK   49  A    between atoms: O_40  and  C_85
REMARK   50  A    between atoms: O_40  and  C_87
REMARK   51  A    between atoms: C_43  and  C_45
REMARK   52  A    between atoms: C_43  and  C_163
REMARK   53  A    between atoms: O_44  and  C_116
REMARK   54  A    between atoms: O_44  and  C_117
REMARK   55  A    between atoms: C_45  and  C_47
REMARK   56  A    between atoms: C_45  and  C_150
REMARK   57  A    between atoms: O_46  and  C_118
REMARK   58  A    between atoms: O_46  and  C_119
REMARK   59  A    between atoms: O_48  and  C_120
REMARK   60  A    between atoms: O_48  and  C_121
REMARK   61  A    between atoms: O_50  and  C_122
REMARK   62  A    between atoms: O_50  and  C_123
REMARK   63  A    between atoms: C_51  and  C_53
REMARK   64  A    between atoms: O_52  and  C_124
REMARK   65  A    between atoms: O_52  and  C_125
REMARK   66  A    between atoms: O_54  and  C_126
REMARK   67  A    between atoms: O_54  and  C_127
REMARK   68  A    between atoms: C_55  and  C_57
REMARK   69  A    between atoms: O_56  and  C_128
REMARK   70  A    between atoms: O_56  and  C_129
REMARK   71  A    between atoms: O_58  and  C_130
REMARK   72  A    between atoms: O_58  and  C_131
REMARK   73  A    between atoms: C_59  and  C_61
REMARK   74  A    between atoms: O_60  and  C_132
REMARK   75  A    between atoms: O_60  and  C_133
REMARK   76  A    between atoms: O_62  and  C_134
REMARK   77  A    between atoms: O_62  and  C_135
REMARK   78  A    between atoms: C_63  and  C_65
REMARK   79  A    between atoms: O_66  and  C_180
REMARK   80  A    between atoms: O_66  and  C_181
REMARK   81  A    between atoms: C_67  and  C_69
REMARK   82  A    between atoms: O_68  and  C_182
REMARK   83  A    between atoms: O_68  and  C_183
REMARK   84  A    between atoms: O_70  and  C_184
REMARK   85  A    between atoms: O_70  and  C_185
REMARK   86  A    between atoms: C_71  and  C_73
REMARK   87  A    between atoms: O_72  and  C_186
REMARK   88  A    between atoms: O_72  and  C_187
REMARK   89  A    between atoms: O_74  and  C_188
REMARK   90  A    between atoms: O_74  and  C_189
REMARK   91  A    between atoms: C_75  and  C_77
REMARK   92  A    between atoms: O_76  and  C_190
REMARK   93  A    between atoms: O_76  and  C_191
REMARK   94  A    between atoms: O_78  and  C_192
REMARK   95  A    between atoms: O_78  and  C_193
REMARK   96  A    between atoms: C_79  and  C_81
REMARK   97  A    between atoms: O_80  and  C_194
REMARK   98  A    between atoms: O_80  and  C_195
REMARK   99  A    between atoms: O_82  and  C_196
REMARK  100  A    between atoms: O_82  and  C_197
REMARK  101  A    between atoms: C_83  and  C_85
REMARK  102  A    between atoms: O_84  and  C_198
REMARK  103  A    between atoms: O_84  and  C_199
REMARK  104  A    between atoms: C_87  and  C_89
REMARK  105  A    between atoms: O_88  and  C_215
REMARK  106  A    between atoms: O_88  and  C_216
REMARK  107  A    between atoms: O_90  and  C_217
REMARK  108  A    between atoms: O_90  and  C_218
REMARK  109  A    between atoms: O_92  and  C_219
REMARK  110  A    between atoms: O_92  and  C_220
REMARK  111  A    between atoms: O_94  and  C_221
REMARK  112  A    between atoms: O_94  and  C_222
REMARK  113  A    between atoms: O_96  and  C_223
REMARK  114  A    between atoms: O_96  and  C_224
REMARK  115  A    between atoms: C_97  and  C_99
REMARK  116  A    between atoms: O_98  and  C_225
REMARK  117  A    between atoms: O_98  and  C_226
REMARK  118  A    between atoms: C_99  and  C_105
REMARK  119  A    between atoms: O_100  and  C_227
REMARK  120  A    between atoms: O_100  and  C_228
REMARK  121  A    between atoms: O_102  and  C_229
REMARK  122  A    between atoms: O_102  and  C_230
REMARK  123  A    between atoms: O_104  and  C_231
REMARK  124  A    between atoms: O_104  and  C_232
REMARK  125  A    between atoms: C_105  and  C_107
REMARK  126  A    between atoms: O_106  and  C_233
REMARK  127  A    between atoms: O_106  and  C_234
REMARK  128  A    between atoms: C_117  and  C_118
REMARK  129  A    between atoms: C_119  and  C_120
REMARK  130  A    between atoms: C_121  and  C_122
REMARK  131  A    between atoms: C_123  and  C_124
REMARK  132  A    between atoms: C_125  and  C_126
REMARK  133  A    between atoms: C_127  and  C_128
REMARK  134  A    between atoms: C_129  and  C_130
REMARK  135  A    between atoms: C_131  and  C_132
REMARK  136  A    between atoms: C_133  and  C_134
REMARK  137  A    between atoms: C_135  and  C_136
REMARK  138  A    between atoms: C_138  and  C_139
REMARK  139  A    between atoms: C_139  and  C_142
REMARK  140  A    between atoms: C_142  and  C_145
REMARK  141  A    between atoms: C_150  and  C_151
REMARK  142  A    between atoms: C_151  and  C_152
REMARK  143  A    between atoms: C_152  and  C_155
REMARK  144  A    between atoms: C_155  and  C_158
REMARK  145  A    between atoms: C_163  and  C_164
REMARK  146  A    between atoms: C_166  and  C_167
REMARK  147  A    between atoms: C_167  and  C_168
REMARK  148  A    between atoms: C_168  and  C_171
REMARK  149  A    between atoms: C_178  and  C_179
REMARK  150  A    between atoms: C_179  and  C_180
REMARK  151  A    between atoms: C_179  and  C_214
REMARK  152  A    between atoms: C_181  and  C_182
REMARK  153  A    between atoms: C_183  and  C_184
REMARK  154  A    between atoms: C_185  and  C_186
REMARK  155  A    between atoms: C_187  and  C_188
REMARK  156  A    between atoms: C_189  and  C_190
REMARK  157  A    between atoms: C_191  and  C_192
REMARK  158  A    between atoms: C_193  and  C_194
REMARK  159  A    between atoms: C_195  and  C_196
REMARK  160  A    between atoms: C_197  and  C_198
REMARK  161  A    between atoms: C_199  and  C_200
REMARK  162  A    between atoms: C_203  and  C_204
REMARK  163  A    between atoms: C_203  and  C_214
REMARK  164  A    between atoms: C_204  and  C_207
REMARK  165  A    between atoms: C_207  and  C_210
REMARK  166  A    between atoms: C_216  and  C_217
REMARK  167  A    between atoms: C_218  and  C_219
REMARK  168  A    between atoms: C_220  and  C_221
REMARK  169  A    between atoms: C_222  and  C_223
REMARK  170  A    between atoms: C_224  and  C_225
REMARK  171  A    between atoms: C_226  and  C_227
REMARK  172  A    between atoms: C_228  and  C_229
REMARK  173  A    between atoms: C_230  and  C_231
REMARK  174  A    between atoms: C_232  and  C_233
REMARK  175  A    between atoms: C_234  and  C_235
REMARK                            x       y       z     vdW  Elec       q    Type
REMARK                         _______ _______ _______ _____ _____    ______ ____
ROOT
ATOM      1  C   UNL     1     -14.236  10.767  24.921  0.00  0.00    +0.000 C 
ENDROOT
BRANCH   1   2
ATOM      2  C   UNL     1     -12.550  10.075  25.633  0.00  0.00    +0.000 C 
BRANCH   2   3
ATOM      3  C   UNL     1     -12.387   8.539  25.870  0.00  0.00    +0.000 C 
ATOM      4  C   UNL     1     -11.830   8.202  27.392  0.00  0.00    +0.000 C 
ATOM      5  C   UNL     1     -10.319   8.019  27.418  0.00  0.00    +0.000 C 
ATOM      6  C   UNL     1      -9.962   6.571  26.509  0.00  0.00    +0.000 C 
ATOM      7  C   UNL     1      -9.931   6.611  25.036  0.00  0.00    +0.000 C 
ATOM      8  C   UNL     1     -11.360   7.471  24.460  0.00  0.00    +0.000 C 
BRANCH   5   9
ATOM      9  C   UNL     1      -9.742   7.975  28.938  0.00  0.00    +0.000 C 
ATOM     10  C   UNL     1     -10.665   7.768  29.704  0.00  0.00    +0.000 C 
ATOM     11  C   UNL     1      -8.523   6.953  28.913  0.00  0.00    +0.000 C 
BRANCH   9  12
ATOM     12  C   UNL     1      -8.997   9.373  29.378  0.00  0.00    +0.000 C 
ATOM     13  C   UNL     1      -9.103   9.601  30.907  0.00  0.00    +0.000 C 
ATOM     14  C   UNL     1      -9.929  10.725  28.917  0.00  0.00    +0.000 C 
BRANCH  12  15
ATOM     15  C   UNL     1      -7.678   9.759  28.787  0.00  0.00    +0.000 C 
ATOM     16  C   UNL     1      -6.803   9.453  29.994  0.00  0.00    +0.000 C 
ATOM     17  C   UNL     1      -7.466  11.188  28.480  0.00  0.00    +0.000 C 
ATOM     18  C   UNL     1      -7.327   8.979  27.591  0.00  0.00    +0.000 C 
ENDBRANCH  12  15
ENDBRANCH   9  12
ENDBRANCH   5   9
BRANCH   7  19
ATOM     19  C   UNL     1      -9.231   5.385  24.310  0.00  0.00    +0.000 C 
BRANCH  19  20
ATOM     20  C   UNL     1     -10.242   4.287  23.818  0.00  0.00    +0.000 C 
ATOM     21  C   UNL     1     -11.321   3.922  24.914  0.00  0.00    +0.000 C 
BRANCH  20  22
ATOM     22  O   UNL     1     -11.051   4.841  22.717  0.00  0.00    +0.000 OA
BRANCH  22  23
ATOM     23  C   UNL     1     -11.344   3.948  21.679  0.00  0.00    +0.000 C 
BRANCH  23  24
ATOM     24  C   UNL     1     -11.666   4.708  20.400  0.00  0.00    +0.000 C 
BRANCH  24  25
ATOM     25  O   UNL     1     -12.742   4.096  19.768  0.00  0.00    +0.000 OA
BRANCH  25  26
ATOM     26  C   UNL     1     -12.399   3.532  18.511  0.00  0.00    +0.000 C 
BRANCH  26  27
ATOM     27  C   UNL     1     -13.565   3.490  17.620  0.00  0.00    +0.000 C 
BRANCH  27  28
ATOM     28  O   UNL     1     -13.781   4.745  17.089  0.00  0.00    +0.000 OA
BRANCH  28  29
ATOM     29  C   UNL     1     -14.008   4.765  15.695  0.00  0.00    +0.000 C 
BRANCH  29  30
ATOM     30  C   UNL     1     -12.701   4.519  14.979  0.00  0.00    +0.000 C 
BRANCH  30  31
ATOM     31  O   UNL     1     -12.820   3.327  14.266  0.00  0.00    +0.000 OA
BRANCH  31  32
ATOM     32  C   UNL     1     -11.594   2.575  14.302  0.00  0.00    +0.000 C 
BRANCH  32  33
ATOM     33  C   UNL     1     -10.580   3.371  15.139  0.00  0.00    +0.000 C 
BRANCH  33  34
ATOM     34  O   UNL     1      -9.314   3.173  14.598  0.00  0.00    +0.000 OA
BRANCH  34  35
ATOM     35  C   UNL     1      -9.236   3.409  13.178  0.00  0.00    +0.000 C 
BRANCH  35  36
ATOM     36  C   UNL     1      -9.184   4.871  12.851  0.00  0.00    +0.000 C 
BRANCH  36  37
ATOM     37  O   UNL     1     -10.333   5.151  11.998  0.00  0.00    +0.000 OA
BRANCH  37  38
ATOM     38  C   UNL     1     -10.188   4.519  10.751  0.00  0.00    +0.000 C 
BRANCH  38  39
ATOM     39  C   UNL     1      -9.286   5.229   9.824  0.00  0.00    +0.000 C 
BRANCH  39  40
ATOM     40  O   UNL     1      -8.999   4.308   8.670  0.00  0.00    +0.000 OA
BRANCH  40  41
ATOM     41  C   UNL     1     -10.127   4.117   7.848  0.00  0.00    +0.000 C 
BRANCH  41  42
ATOM     42  C   UNL     1     -10.394   5.311   7.000  0.00  0.00    +0.000 C 
BRANCH  42  43
ATOM     43  O   UNL     1     -11.526   5.138   6.245  0.00  0.00    +0.000 OA
BRANCH  43  44
ATOM     44  C   UNL     1     -12.354   4.068   6.603  0.00  0.00    +0.000 C 
BRANCH  44  45
ATOM     45  C   UNL     1     -13.790   4.364   6.356  0.00  0.00    +0.000 C 
BRANCH  45  46
ATOM     46  O   UNL     1     -14.467   3.113   6.198  0.00  0.00    +0.000 OA
BRANCH  46  47
ATOM     47  C   UNL     1     -14.021   2.208   7.195  0.00  0.00    +0.000 C 
BRANCH  47  48
ATOM     48  C   UNL     1     -15.275   1.784   8.068  0.00  0.00    +0.000 C 
BRANCH  48  49
ATOM     49  O   UNL     1     -15.046   0.537   8.625  0.00  0.00    +0.000 OA
BRANCH  49  50
ATOM     50  C   UNL     1     -15.463   0.374   9.939  0.00  0.00    +0.000 C 
BRANCH  50  52
ATOM     51  O   UNL     1     -14.038  -0.449  11.665  0.00  0.00    +0.000 OA
ATOM     52  C   UNL     1     -14.814  -0.892  10.534  0.00  0.00    +0.000 C 
ENDBRANCH  50  52
ENDBRANCH  49  50
ENDBRANCH  48  49
ENDBRANCH  47  48
ENDBRANCH  46  47
ENDBRANCH  45  46
ENDBRANCH  44  45
ENDBRANCH  43  44
ENDBRANCH  42  43
ENDBRANCH  41  42
ENDBRANCH  40  41
ENDBRANCH  39  40
ENDBRANCH  38  39
ENDBRANCH  37  38
ENDBRANCH  36  37
ENDBRANCH  35  36
ENDBRANCH  34  35
ENDBRANCH  33  34
ENDBRANCH  32  33
ENDBRANCH  31  32
ENDBRANCH  30  31
ENDBRANCH  29  30
ENDBRANCH  28  29
ENDBRANCH  27  28
ENDBRANCH  26  27
ENDBRANCH  25  26
ENDBRANCH  24  25
ENDBRANCH  23  24
ENDBRANCH  22  23
ENDBRANCH  20  22
ENDBRANCH  19  20
BRANCH  19  53
ATOM     53  C   UNL     1      -8.321   5.712  23.014  0.00  0.00    +0.000 C 
BRANCH  53  55
ATOM     54  C   UNL     1      -8.017   4.812  20.840  0.00  0.00    +0.000 C 
ATOM     55  C   UNL     1      -7.547   4.935  22.244  0.00  0.00    +0.000 C 
BRANCH  55  56
ATOM     56  C   UNL     1      -6.285   4.210  22.706  0.00  0.00    +0.000 C 
ATOM     57  C   UNL     1      -6.830   3.032  23.440  0.00  0.00    +0.000 C 
ATOM     58  C   UNL     1      -5.546   3.693  21.505  0.00  0.00    +0.000 C 
BRANCH  56  59
ATOM     59  C   UNL     1      -5.387   5.126  23.591  0.00  0.00    +0.000 C 
ATOM     60  C   UNL     1      -4.485   4.354  24.472  0.00  0.00    +0.000 C 
ATOM     61  C   UNL     1      -6.329   5.997  24.456  0.00  0.00    +0.000 C 
BRANCH  59  62
ATOM     62  C   UNL     1      -4.484   6.150  22.762  0.00  0.00    +0.000 C 
ATOM     63  C   UNL     1      -3.839   5.475  21.604  0.00  0.00    +0.000 C 
ATOM     64  C   UNL     1      -3.351   6.643  23.630  0.00  0.00    +0.000 C 
ATOM     65  C   UNL     1      -5.184   7.348  22.335  0.00  0.00    +0.000 C 
ENDBRANCH  59  62
ENDBRANCH  56  59
ENDBRANCH  55  56
ENDBRANCH  53  55
ENDBRANCH  19  53
ENDBRANCH   7  19
BRANCH   8  66
ATOM     66  O   UNL     1     -11.847   7.499  23.186  0.00  0.00    +0.000 OA
BRANCH  66  67
ATOM     67  C   UNL     1     -11.439   8.592  22.396  0.00  0.00    +0.000 C 
BRANCH  67  68
ATOM     68  C   UNL     1     -12.213   8.840  21.082  0.00  0.00    +0.000 C 
BRANCH  68  69
ATOM     69  O   UNL     1     -13.162   7.823  20.918  0.00  0.00    +0.000 OA
BRANCH  69  70
ATOM     70  C   UNL     1     -14.539   8.316  20.998  0.00  0.00    +0.000 C 
BRANCH  70  71
ATOM     71  C   UNL     1     -14.711   9.582  20.177  0.00  0.00    +0.000 C 
BRANCH  71  72
ATOM     72  O   UNL     1     -16.024   9.482  19.377  0.00  0.00    +0.000 OA
BRANCH  72  73
ATOM     73  C   UNL     1     -16.326   8.129  19.063  0.00  0.00    +0.000 C 
BRANCH  73  74
ATOM     74  C   UNL     1     -17.779   7.841  19.460  0.00  0.00    +0.000 C 
BRANCH  74  75
ATOM     75  O   UNL     1     -18.599   7.759  18.337  0.00  0.00    +0.000 OA
BRANCH  75  76
ATOM     76  C   UNL     1     -19.368   8.947  18.109  0.00  0.00    +0.000 C 
BRANCH  76  77
ATOM     77  C   UNL     1     -20.835   8.722  18.359  0.00  0.00    +0.000 C 
BRANCH  77  78
ATOM     78  O   UNL     1     -21.465   9.014  17.119  0.00  0.00    +0.000 OA
BRANCH  78  79
ATOM     79  C   UNL     1     -22.851   8.539  17.043  0.00  0.00    +0.000 C 
BRANCH  79  80
ATOM     80  C   UNL     1     -23.039   7.596  18.169  0.00  0.00    +0.000 C 
BRANCH  80  81
ATOM     81  O   UNL     1     -24.341   6.954  18.146  0.00  0.00    +0.000 OA
BRANCH  81  82
ATOM     82  C   UNL     1     -24.473   5.984  17.157  0.00  0.00    +0.000 C 
BRANCH  82  83
ATOM     83  C   UNL     1     -24.432   4.573  17.777  0.00  0.00    +0.000 C 
BRANCH  83  84
ATOM     84  O   UNL     1     -25.209   3.680  17.016  0.00  0.00    +0.000 OA
BRANCH  84  85
ATOM     85  C   UNL     1     -24.840   3.453  15.749  0.00  0.00    +0.000 C 
BRANCH  85  86
ATOM     86  C   UNL     1     -23.486   2.714  15.701  0.00  0.00    +0.000 C 
BRANCH  86  87
ATOM     87  O   UNL     1     -23.484   1.625  14.815  0.00  0.00    +0.000 OA
BRANCH  87  88
ATOM     88  C   UNL     1     -23.143   1.949  13.514  0.00  0.00    +0.000 C 
BRANCH  88  89
ATOM     89  C   UNL     1     -24.256   1.588  12.545  0.00  0.00    +0.000 C 
BRANCH  89  90
ATOM     90  O   UNL     1     -23.724   1.484  11.228  0.00  0.00    +0.000 OA
BRANCH  90  91
ATOM     91  C   UNL     1     -24.734   0.931  10.359  0.00  0.00    +0.000 C 
BRANCH  91  92
ATOM     92  C   UNL     1     -24.901  -0.523  10.722  0.00  0.00    +0.000 C 
BRANCH  92  93
ATOM     93  O   UNL     1     -26.170  -0.963  10.247  0.00  0.00    +0.000 OA
BRANCH  93  94
ATOM     94  C   UNL     1     -27.092  -1.160  11.249  0.00  0.00    +0.000 C 
BRANCH  94  96
ATOM     95  O   UNL     1     -28.287   0.769  10.454  0.00  0.00    +0.000 OA
ATOM     96  C   UNL     1     -28.450  -0.565  10.860  0.00  0.00    +0.000 C 
ENDBRANCH  94  96
ENDBRANCH  93  94
ENDBRANCH  92  93
ENDBRANCH  91  92
ENDBRANCH  90  91
ENDBRANCH  89  90
ENDBRANCH  88  89
ENDBRANCH  87  88
ENDBRANCH  86  87
ENDBRANCH  85  86
ENDBRANCH  84  85
ENDBRANCH  83  84
ENDBRANCH  82  83
ENDBRANCH  81  82
ENDBRANCH  80  81
ENDBRANCH  79  80
ENDBRANCH  78  79
ENDBRANCH  77  78
ENDBRANCH  76  77
ENDBRANCH  75  76
ENDBRANCH  74  75
ENDBRANCH  73  74
ENDBRANCH  72  73
ENDBRANCH  71  72
ENDBRANCH  70  71
ENDBRANCH  69  70
ENDBRANCH  68  69
ENDBRANCH  67  68
ENDBRANCH  66  67
ENDBRANCH   8  66
ENDBRANCH   2   3
ENDBRANCH   1   2
BRANCH   1  97
ATOM     97  C   UNL     1     -14.592  12.221  24.673  0.00  0.00    +0.000 C 
BRANCH  97  98
ATOM     98  C   UNL     1     -16.191  12.457  24.603  0.00  0.00    +0.000 C 
ATOM     99  C   UNL     1     -16.756  13.068  25.920  0.00  0.00    +0.000 C 
ATOM    100  C   UNL     1     -18.325  13.341  25.965  0.00  0.00    +0.000 C 
ATOM    101  C   UNL     1     -19.588  13.761  26.579  0.00  0.00    +0.000 C 
ATOM    102  C   UNL     1     -20.937  13.110  26.390  0.00  0.00    +0.000 C 
ATOM    103  C   UNL     1     -22.113  13.580  27.092  0.00  0.00    +0.000 C 
ATOM    104  C   UNL     1     -21.911  14.653  28.028  0.00  0.00    +0.000 C 
ATOM    105  C   UNL     1     -20.713  15.341  28.179  0.00  0.00    +0.000 C 
ATOM    106  C   UNL     1     -19.688  14.851  27.426  0.00  0.00    +0.000 C 
ATOM    107  C   UNL     1     -18.689  12.850  25.389  0.00  0.00    +0.000 C 
ATOM    108  C   UNL     1     -18.483  12.392  24.134  0.00  0.00    +0.000 C 
ATOM    109  C   UNL     1     -17.090  12.486  23.495  0.00  0.00    +0.000 C 
BRANCH 103 110
ATOM    110  C   UNL     1     -23.469  12.954  26.781  0.00  0.00    +0.000 C 
ATOM    111  C   UNL     1     -24.493  14.003  27.302  0.00  0.00    +0.000 C 
ATOM    112  C   UNL     1     -23.667  12.916  25.337  0.00  0.00    +0.000 C 
BRANCH 110 113
ATOM    113  C   UNL     1     -23.871  11.578  27.363  0.00  0.00    +0.000 C 
ATOM    114  C   UNL     1     -23.817  10.608  26.226  0.00  0.00    +0.000 C 
ATOM    115  C   UNL     1     -22.873  11.189  28.457  0.00  0.00    +0.000 C 
BRANCH 113 116
ATOM    116  C   UNL     1     -25.302  11.536  28.064  0.00  0.00    +0.000 C 
ATOM    117  C   UNL     1     -26.410  11.761  27.054  0.00  0.00    +0.000 C 
ATOM    118  C   UNL     1     -25.450  12.665  29.019  0.00  0.00    +0.000 C 
ATOM    119  C   UNL     1     -25.499  10.246  28.811  0.00  0.00    +0.000 C 
ENDBRANCH 113 116
ENDBRANCH 110 113
ENDBRANCH 103 110
BRANCH 108 120
ATOM    120  C   UNL     1     -19.458  11.275  23.607  0.00  0.00    +0.000 C 
ATOM    121  C   UNL     1     -20.147  10.675  24.843  0.00  0.00    +0.000 C 
ATOM    122  C   UNL     1     -18.610  10.183  23.062  0.00  0.00    +0.000 C 
BRANCH 120 123
ATOM    123  C   UNL     1     -20.704  11.737  22.665  0.00  0.00    +0.000 C 
ATOM    124  C   UNL     1     -21.809  10.777  22.642  0.00  0.00    +0.000 C 
ATOM    125  C   UNL     1     -21.307  13.022  23.174  0.00  0.00    +0.000 C 
BRANCH 123 126
ATOM    126  C   UNL     1     -20.342  11.913  21.150  0.00  0.00    +0.000 C 
ATOM    127  C   UNL     1     -19.202  11.008  20.835  0.00  0.00    +0.000 C 
ATOM    128  C   UNL     1     -19.842  13.305  20.873  0.00  0.00    +0.000 C 
ATOM    129  C   UNL     1     -21.537  11.710  20.298  0.00  0.00    +0.000 C 
ENDBRANCH 123 126
ENDBRANCH 120 123
ENDBRANCH 108 120
BRANCH 106 130
ATOM    130  O   UNL     1     -18.534  15.595  27.346  0.00  0.00    +0.000 OA
BRANCH 130 131
ATOM    131  C   UNL     1     -18.015  16.234  28.537  0.00  0.00    +0.000 C 
BRANCH 131 132
ATOM    132  C   UNL     1     -17.572  17.630  28.139  0.00  0.00    +0.000 C 
BRANCH 132 133
ATOM    133  O   UNL     1     -18.092  17.960  26.898  0.00  0.00    +0.000 OA
BRANCH 133 134
ATOM    134  C   UNL     1     -19.240  18.790  26.974  0.00  0.00    +0.000 C 
BRANCH 134 135
ATOM    135  C   UNL     1     -20.228  18.377  25.939  0.00  0.00    +0.000 C 
BRANCH 135 136
ATOM    136  O   UNL     1     -19.598  17.914  25.101  0.00  0.00    +0.000 OA
BRANCH 136 137
ATOM    137  C   UNL     1     -20.265  16.918  24.408  0.00  0.00    +0.000 C 
BRANCH 137 138
ATOM    138  C   UNL     1     -19.323  16.057  23.499  0.00  0.00    +0.000 C 
BRANCH 138 139
ATOM    139  O   UNL     1     -18.064  16.193  23.976  0.00  0.00    +0.000 OA
BRANCH 139 140
ATOM    140  C   UNL     1     -17.084  16.344  22.926  0.00  0.00    +0.000 C 
BRANCH 140 141
ATOM    141  C   UNL     1     -17.319  17.641  22.218  0.00  0.00    +0.000 C 
BRANCH 141 142
ATOM    142  O   UNL     1     -16.558  17.683  21.031  0.00  0.00    +0.000 OA
BRANCH 142 143
ATOM    143  C   UNL     1     -17.004  16.761  20.041  0.00  0.00    +0.000 C 
BRANCH 143 144
ATOM    144  C   UNL     1     -15.836  16.419  19.078  0.00  0.00    +0.000 C 
BRANCH 144 145
ATOM    145  O   UNL     1     -15.422  17.567  18.319  0.00  0.00    +0.000 OA
BRANCH 145 146
ATOM    146  C   UNL     1     -15.495  17.511  16.887  0.00  0.00    +0.000 C 
BRANCH 146 147
ATOM    147  C   UNL     1     -14.644  18.566  16.227  0.00  0.00    +0.000 C 
BRANCH 147 148
ATOM    148  O   UNL     1     -15.525  19.497  15.571  0.00  0.00    +0.000 OA
BRANCH 148 149
ATOM    149  C   UNL     1     -16.856  19.045  15.387  0.00  0.00    +0.000 C 
BRANCH 149 150
ATOM    150  C   UNL     1     -17.286  19.287  13.955  0.00  0.00    +0.000 C 
BRANCH 150 151
ATOM    151  O   UNL     1     -16.620  18.334  13.117  0.00  0.00    +0.000 OA
BRANCH 151 152
ATOM    152  C   UNL     1     -15.795  18.851  12.132  0.00  0.00    +0.000 C 
BRANCH 152 153
ATOM    153  C   UNL     1     -14.352  18.424  12.331  0.00  0.00    +0.000 C 
BRANCH 153 154
ATOM    154  O   UNL     1     -14.320  17.186  13.039  0.00  0.00    +0.000 OA
BRANCH 154 155
ATOM    155  C   UNL     1     -13.170  16.424  12.811  0.00  0.00    +0.000 C 
BRANCH 155 156
ATOM    156  C   UNL     1     -12.116  16.701  13.913  0.00  0.00    +0.000 C 
BRANCH 156 157
ATOM    157  O   UNL     1     -10.918  17.126  13.256  0.00  0.00    +0.000 OA
BRANCH 157 158
ATOM    158  C   UNL     1     -10.041  17.814  14.108  0.00  0.00    +0.000 C 
BRANCH 158 160
ATOM    159  O   UNL     1      -9.223  18.199  11.806  0.00  0.00    +0.000 OA
ATOM    160  C   UNL     1      -8.857  18.093  13.290  0.00  0.00    +0.000 C 
ENDBRANCH 158 160
ENDBRANCH 157 158
ENDBRANCH 156 157
ENDBRANCH 155 156
ENDBRANCH 154 155
ENDBRANCH 153 154
ENDBRANCH 152 153
ENDBRANCH 151 152
ENDBRANCH 150 151
ENDBRANCH 149 150
ENDBRANCH 148 149
ENDBRANCH 147 148
ENDBRANCH 146 147
ENDBRANCH 145 146
ENDBRANCH 144 145
ENDBRANCH 143 144
ENDBRANCH 142 143
ENDBRANCH 141 142
ENDBRANCH 140 141
ENDBRANCH 139 140
ENDBRANCH 138 139
ENDBRANCH 137 138
ENDBRANCH 136 137
ENDBRANCH 135 136
ENDBRANCH 134 135
ENDBRANCH 133 134
ENDBRANCH 132 133
ENDBRANCH 131 132
ENDBRANCH 130 131
ENDBRANCH 106 130
BRANCH  99 161
ATOM    161  O   UNL     1     -16.245  12.676  27.132  0.00  0.00    +0.000 OA
BRANCH 161 162
ATOM    162  C   UNL     1     -17.136  12.285  28.182  0.00  0.00    +0.000 C 
BRANCH 162 163
ATOM    163  C   UNL     1     -16.823  12.852  29.558  0.00  0.00    +0.000 C 
BRANCH 163 164
ATOM    164  O   UNL     1     -17.724  12.362  30.504  0.00  0.00    +0.000 OA
BRANCH 164 165
ATOM    165  C   UNL     1     -17.565  11.010  30.842  0.00  0.00    +0.000 C 
BRANCH 165 166
ATOM    166  C   UNL     1     -16.162  10.682  31.362  0.00  0.00    +0.000 C 
BRANCH 166 167
ATOM    167  O   UNL     1     -15.661   9.515  30.663  0.00  0.00    +0.000 OA
BRANCH 167 168
ATOM    168  C   UNL     1     -14.522   9.839  29.894  0.00  0.00    +0.000 C 
BRANCH 168 169
ATOM    169  C   UNL     1     -13.727  10.960  30.548  0.00  0.00    +0.000 C 
BRANCH 169 170
ATOM    170  O   UNL     1     -12.575  10.451  31.145  0.00  0.00    +0.000 OA
BRANCH 170 171
ATOM    171  C   UNL     1     -12.266  11.055  32.386  0.00  0.00    +0.000 C 
BRANCH 171 172
ATOM    172  C   UNL     1     -11.882   9.990  33.462  0.00  0.00    +0.000 C 
BRANCH 172 173
ATOM    173  O   UNL     1     -13.014   9.158  33.653  0.00  0.00    +0.000 OA
BRANCH 173 174
ATOM    174  C   UNL     1     -12.659   7.763  33.402  0.00  0.00    +0.000 C 
BRANCH 174 175
ATOM    175  C   UNL     1     -13.539   7.208  32.284  0.00  0.00    +0.000 C 
BRANCH 175 176
ATOM    176  O   UNL     1     -14.409   6.277  32.843  0.00  0.00    +0.000 OA
BRANCH 176 177
ATOM    177  C   UNL     1     -15.550   6.885  33.426  0.00  0.00    +0.000 C 
BRANCH 177 178
ATOM    178  C   UNL     1     -16.349   5.773  34.093  0.00  0.00    +0.000 C 
BRANCH 178 179
ATOM    179  O   UNL     1     -17.694   5.824  33.652  0.00  0.00    +0.000 OA
BRANCH 179 180
ATOM    180  C   UNL     1     -17.918   5.069  32.431  0.00  0.00    +0.000 C 
BRANCH 180 181
ATOM    181  C   UNL     1     -18.332   6.017  31.305  0.00  0.00    +0.000 C 
BRANCH 181 182
ATOM    182  O   UNL     1     -18.753   5.290  30.184  0.00  0.00    +0.000 OA
BRANCH 182 183
ATOM    183  C   UNL     1     -20.169   5.522  29.863  0.00  0.00    +0.000 C 
BRANCH 183 184
ATOM    184  C   UNL     1     -21.106   4.434  30.390  0.00  0.00    +0.000 C 
BRANCH 184 185
ATOM    185  O   UNL     1     -21.187   3.465  29.395  0.00  0.00    +0.000 OA
BRANCH 185 186
ATOM    186  C   UNL     1     -22.431   3.511  28.676  0.00  0.00    +0.000 C 
BRANCH 186 187
ATOM    187  C   UNL     1     -23.323   2.360  29.082  0.00  0.00    +0.000 C 
BRANCH 187 188
ATOM    188  O   UNL     1     -24.480   2.977  29.787  0.00  0.00    +0.000 OA
BRANCH 188 189
ATOM    189  C   UNL     1     -24.722   2.289  31.032  0.00  0.00    +0.000 C 
BRANCH 189 191
ATOM    190  O   UNL     1     -24.701   4.398  32.108  0.00  0.00    +0.000 OA
ATOM    191  C   UNL     1     -24.120   3.137  32.130  0.00  0.00    +0.000 C 
ENDBRANCH 189 191
ENDBRANCH 188 189
ENDBRANCH 187 188
ENDBRANCH 186 187
ENDBRANCH 185 186
ENDBRANCH 184 185
ENDBRANCH 183 184
ENDBRANCH 182 183
ENDBRANCH 181 182
ENDBRANCH 180 181
ENDBRANCH 179 180
ENDBRANCH 178 179
ENDBRANCH 177 178
ENDBRANCH 176 177
ENDBRANCH 175 176
ENDBRANCH 174 175
ENDBRANCH 173 174
ENDBRANCH 172 173
ENDBRANCH 171 172
ENDBRANCH 170 171
ENDBRANCH 169 170
ENDBRANCH 168 169
ENDBRANCH 167 168
ENDBRANCH 166 167
ENDBRANCH 165 166
ENDBRANCH 164 165
ENDBRANCH 163 164
ENDBRANCH 162 163
ENDBRANCH 161 162
ENDBRANCH  99 161
ENDBRANCH  97  98
BRANCH  97 192
ATOM    192  C   UNL     1     -13.518  12.771  25.437  0.00  0.00    +0.000 C 
BRANCH 192 193
ATOM    193  C   UNL     1     -13.019  14.122  25.383  0.00  0.00    +0.000 C 
ATOM    194  C   UNL     1     -13.221  14.967  24.216  0.00  0.00    +0.000 C 
BRANCH 193 195
ATOM    195  C   UNL     1     -12.257  14.717  26.497  0.00  0.00    +0.000 C 
ATOM    196  C   UNL     1     -11.911  13.567  27.458  0.00  0.00    +0.000 C 
ATOM    197  C   UNL     1     -10.922  15.300  26.016  0.00  0.00    +0.000 C 
BRANCH 195 198
ATOM    198  C   UNL     1     -13.135  15.852  27.239  0.00  0.00    +0.000 C 
ATOM    199  C   UNL     1     -14.565  15.710  26.949  0.00  0.00    +0.000 C 
ATOM    200  C   UNL     1     -12.675  17.215  26.835  0.00  0.00    +0.000 C 
BRANCH 198 201
ATOM    201  C   UNL     1     -13.075  15.936  28.810  0.00  0.00    +0.000 C 
ATOM    202  C   UNL     1     -11.691  16.160  29.337  0.00  0.00    +0.000 C 
ATOM    203  C   UNL     1     -13.546  14.668  29.472  0.00  0.00    +0.000 C 
ATOM    204  C   UNL     1     -13.830  17.087  29.278  0.00  0.00    +0.000 C 
ENDBRANCH 198 201
ENDBRANCH 195 198
ENDBRANCH 193 195
ENDBRANCH 192 193
ENDBRANCH  97 192
ENDBRANCH   1  97
BRANCH   1 205
ATOM    205  O   UNL     1     -15.037  10.200  25.938  0.00  0.00    +0.000 OA
BRANCH 205 206
ATOM    206  C   UNL     1     -15.926   9.212  25.469  0.00  0.00    +0.000 C 
BRANCH 206 207
ATOM    207  C   UNL     1     -17.205   9.196  26.255  0.00  0.00    +0.000 C 
BRANCH 207 208
ATOM    208  O   UNL     1     -16.974   8.811  27.616  0.00  0.00    +0.000 OA
BRANCH 208 209
ATOM    209  C   UNL     1     -18.176   8.412  28.309  0.00  0.00    +0.000 C 
BRANCH 209 210
ATOM    210  C   UNL     1     -19.321   8.255  27.340  0.00  0.00    +0.000 C 
BRANCH 210 211
ATOM    211  C   UNL     1     -20.691   8.451  27.989  0.00  0.00    +0.000 C 
BRANCH 211 212
ATOM    212  C   UNL     1     -21.797   7.894  27.120  0.00  0.00    +0.000 C 
BRANCH 212 213
ATOM    213  C   UNL     1     -22.797   7.146  27.938  0.00  0.00    +0.000 C 
BRANCH 213 214
ATOM    214  O   UNL     1     -24.055   7.308  27.470  0.00  0.00    +0.000 OA
BRANCH 214 215
ATOM    215  C   UNL     1     -24.433   6.257  26.538  0.00  0.00    +0.000 C 
BRANCH 215 216
ATOM    216  C   UNL     1     -24.813   6.799  25.176  0.00  0.00    +0.000 C 
BRANCH 216 217
ATOM    217  O   UNL     1     -24.942   5.784  24.286  0.00  0.00    +0.000 OA
BRANCH 217 218
ATOM    218  C   UNL     1     -25.846   5.545  23.123  0.00  0.00    +0.000 C 
BRANCH 218 219
ATOM    219  C   UNL     1     -25.396   6.574  22.032  0.00  0.00    +0.000 C 
BRANCH 219 220
ATOM    220  O   UNL     1     -26.095   7.755  22.161  0.00  0.00    +0.000 OA
BRANCH 220 221
ATOM    221  C   UNL     1     -26.783   8.223  20.987  0.00  0.00    +0.000 C 
BRANCH 221 222
ATOM    222  C   UNL     1     -27.257   9.655  21.224  0.00  0.00    +0.000 C 
BRANCH 222 223
ATOM    223  O   UNL     1     -26.578  10.568  20.401  0.00  0.00    +0.000 OA
BRANCH 223 224
ATOM    224  C   UNL     1     -25.722   9.968  19.446  0.00  0.00    +0.000 C 
BRANCH 224 225
ATOM    225  C   UNL     1     -26.100  10.533  18.073  0.00  0.00    +0.000 C 
BRANCH 225 226
ATOM    226  O   UNL     1     -24.970  11.129  17.441  0.00  0.00    +0.000 OA
BRANCH 226 227
ATOM    227  C   UNL     1     -24.554  12.332  18.060  0.00  0.00    +0.000 C 
BRANCH 227 228
ATOM    228  C   UNL     1     -25.513  13.428  17.669  0.00  0.00    +0.000 C 
BRANCH 228 229
ATOM    229  O   UNL     1     -25.117  14.683  18.151  0.00  0.00    +0.000 OA
BRANCH 229 230
ATOM    230  C   UNL     1     -24.014  14.609  19.015  0.00  0.00    +0.000 C 
BRANCH 230 231
ATOM    231  C   UNL     1     -23.091  15.768  18.791  0.00  0.00    +0.000 C 
BRANCH 231 232
ATOM    232  O   UNL     1     -23.201  16.659  19.874  0.00  0.00    +0.000 OA
BRANCH 232 233
ATOM    233  C   UNL     1     -24.017  16.173  20.916  0.00  0.00    +0.000 C 
BRANCH 233 234
ATOM    234  C   UNL     1     -23.213  16.036  22.190  0.00  0.00    +0.000 C 
ATOM    235  O   UNL     1     -23.840  16.779  23.212  0.00  0.00    +0.000 OA
ENDBRANCH 233 234
ENDBRANCH 232 233
ENDBRANCH 231 232
ENDBRANCH 230 231
ENDBRANCH 229 230
ENDBRANCH 228 229
ENDBRANCH 227 228
ENDBRANCH 226 227
ENDBRANCH 225 226
ENDBRANCH 224 225
ENDBRANCH 223 224
ENDBRANCH 222 223
ENDBRANCH 221 222
ENDBRANCH 220 221
ENDBRANCH 219 220
ENDBRANCH 218 219
ENDBRANCH 217 218
ENDBRANCH 216 217
ENDBRANCH 215 216
ENDBRANCH 214 215
ENDBRANCH 213 214
ENDBRANCH 212 213
ENDBRANCH 211 212
ENDBRANCH 210 211
ENDBRANCH 209 210
ENDBRANCH 208 209
ENDBRANCH 207 208
ENDBRANCH 206 207
ENDBRANCH 205 206
ENDBRANCH   1 205
TORSDOF 175
ENDMDL
MODEL 7
REMARK VINA RESULT:      -4.5      1.374      2.239
REMARK  Name = human_CD1d_Tyloxapol_pred.rank_0
REMARK  175 active torsions:
REMARK  status: ('A' for Active; 'I' for Inactive)
REMARK    1  A    between atoms: C_1  and  C_3
REMARK    2  A    between atoms: C_3  and  O_4
REMARK    3  A    between atoms: O_4  and  C_5
REMARK    4  A    between atoms: C_5  and  C_7
REMARK    5  A    between atoms: O_6  and  C_7
REMARK    6  A    between atoms: O_6  and  C_9
REMARK    7  A    between atoms: O_8  and  C_11
REMARK    8  A    between atoms: O_8  and  C_13
REMARK    9  A    between atoms: C_9  and  C_11
REMARK   10  A    between atoms: O_10  and  C_15
REMARK   11  A    between atoms: O_10  and  C_17
REMARK   12  A    between atoms: O_12  and  C_19
REMARK   13  A    between atoms: O_12  and  C_21
REMARK   14  A    between atoms: C_13  and  C_15
REMARK   15  A    between atoms: O_14  and  C_23
REMARK   16  A    between atoms: O_14  and  C_25
REMARK   17  A    between atoms: O_16  and  C_27
REMARK   18  A    between atoms: O_16  and  C_29
REMARK   19  A    between atoms: C_17  and  C_19
REMARK   20  A    between atoms: O_18  and  C_37
REMARK   21  A    between atoms: O_18  and  C_39
REMARK   22  A    between atoms: O_20  and  C_41
REMARK   23  A    between atoms: O_20  and  C_43
REMARK   24  A    between atoms: C_21  and  C_23
REMARK   25  A    between atoms: O_22  and  C_49
REMARK   26  A    between atoms: O_22  and  C_51
REMARK   27  A    between atoms: O_24  and  C_53
REMARK   28  A    between atoms: O_24  and  C_55
REMARK   29  A    between atoms: C_25  and  C_27
REMARK   30  A    between atoms: O_26  and  C_57
REMARK   31  A    between atoms: O_26  and  C_59
REMARK   32  A    between atoms: O_28  and  C_61
REMARK   33  A    between atoms: O_28  and  C_63
REMARK   34  A    between atoms: C_29  and  C_31
REMARK   35  A    between atoms: O_30  and  C_65
REMARK   36  A    between atoms: O_30  and  C_67
REMARK   37  A    between atoms: C_31  and  C_33
REMARK   38  A    between atoms: O_32  and  C_69
REMARK   39  A    between atoms: O_32  and  C_71
REMARK   40  A    between atoms: C_33  and  C_35
REMARK   41  A    between atoms: O_34  and  C_73
REMARK   42  A    between atoms: O_34  and  C_75
REMARK   43  A    between atoms: C_35  and  C_37
REMARK   44  A    between atoms: O_36  and  C_77
REMARK   45  A    between atoms: O_36  and  C_79
REMARK   46  A    between atoms: O_38  and  C_81
REMARK   47  A    between atoms: O_38  and  C_83
REMARK   48  A    between atoms: C_39  and  C_41
REMARK   49  A    between atoms: O_40  and  C_85
REMARK   50  A    between atoms: O_40  and  C_87
REMARK   51  A    between atoms: C_43  and  C_45
REMARK   52  A    between atoms: C_43  and  C_163
REMARK   53  A    between atoms: O_44  and  C_116
REMARK   54  A    between atoms: O_44  and  C_117
REMARK   55  A    between atoms: C_45  and  C_47
REMARK   56  A    between atoms: C_45  and  C_150
REMARK   57  A    between atoms: O_46  and  C_118
REMARK   58  A    between atoms: O_46  and  C_119
REMARK   59  A    between atoms: O_48  and  C_120
REMARK   60  A    between atoms: O_48  and  C_121
REMARK   61  A    between atoms: O_50  and  C_122
REMARK   62  A    between atoms: O_50  and  C_123
REMARK   63  A    between atoms: C_51  and  C_53
REMARK   64  A    between atoms: O_52  and  C_124
REMARK   65  A    between atoms: O_52  and  C_125
REMARK   66  A    between atoms: O_54  and  C_126
REMARK   67  A    between atoms: O_54  and  C_127
REMARK   68  A    between atoms: C_55  and  C_57
REMARK   69  A    between atoms: O_56  and  C_128
REMARK   70  A    between atoms: O_56  and  C_129
REMARK   71  A    between atoms: O_58  and  C_130
REMARK   72  A    between atoms: O_58  and  C_131
REMARK   73  A    between atoms: C_59  and  C_61
REMARK   74  A    between atoms: O_60  and  C_132
REMARK   75  A    between atoms: O_60  and  C_133
REMARK   76  A    between atoms: O_62  and  C_134
REMARK   77  A    between atoms: O_62  and  C_135
REMARK   78  A    between atoms: C_63  and  C_65
REMARK   79  A    between atoms: O_66  and  C_180
REMARK   80  A    between atoms: O_66  and  C_181
REMARK   81  A    between atoms: C_67  and  C_69
REMARK   82  A    between atoms: O_68  and  C_182
REMARK   83  A    between atoms: O_68  and  C_183
REMARK   84  A    between atoms: O_70  and  C_184
REMARK   85  A    between atoms: O_70  and  C_185
REMARK   86  A    between atoms: C_71  and  C_73
REMARK   87  A    between atoms: O_72  and  C_186
REMARK   88  A    between atoms: O_72  and  C_187
REMARK   89  A    between atoms: O_74  and  C_188
REMARK   90  A    between atoms: O_74  and  C_189
REMARK   91  A    between atoms: C_75  and  C_77
REMARK   92  A    between atoms: O_76  and  C_190
REMARK   93  A    between atoms: O_76  and  C_191
REMARK   94  A    between atoms: O_78  and  C_192
REMARK   95  A    between atoms: O_78  and  C_193
REMARK   96  A    between atoms: C_79  and  C_81
REMARK   97  A    between atoms: O_80  and  C_194
REMARK   98  A    between atoms: O_80  and  C_195
REMARK   99  A    between atoms: O_82  and  C_196
REMARK  100  A    between atoms: O_82  and  C_197
REMARK  101  A    between atoms: C_83  and  C_85
REMARK  102  A    between atoms: O_84  and  C_198
REMARK  103  A    between atoms: O_84  and  C_199
REMARK  104  A    between atoms: C_87  and  C_89
REMARK  105  A    between atoms: O_88  and  C_215
REMARK  106  A    between atoms: O_88  and  C_216
REMARK  107  A    between atoms: O_90  and  C_217
REMARK  108  A    between atoms: O_90  and  C_218
REMARK  109  A    between atoms: O_92  and  C_219
REMARK  110  A    between atoms: O_92  and  C_220
REMARK  111  A    between atoms: O_94  and  C_221
REMARK  112  A    between atoms: O_94  and  C_222
REMARK  113  A    between atoms: O_96  and  C_223
REMARK  114  A    between atoms: O_96  and  C_224
REMARK  115  A    between atoms: C_97  and  C_99
REMARK  116  A    between atoms: O_98  and  C_225
REMARK  117  A    between atoms: O_98  and  C_226
REMARK  118  A    between atoms: C_99  and  C_105
REMARK  119  A    between atoms: O_100  and  C_227
REMARK  120  A    between atoms: O_100  and  C_228
REMARK  121  A    between atoms: O_102  and  C_229
REMARK  122  A    between atoms: O_102  and  C_230
REMARK  123  A    between atoms: O_104  and  C_231
REMARK  124  A    between atoms: O_104  and  C_232
REMARK  125  A    between atoms: C_105  and  C_107
REMARK  126  A    between atoms: O_106  and  C_233
REMARK  127  A    between atoms: O_106  and  C_234
REMARK  128  A    between atoms: C_117  and  C_118
REMARK  129  A    between atoms: C_119  and  C_120
REMARK  130  A    between atoms: C_121  and  C_122
REMARK  131  A    between atoms: C_123  and  C_124
REMARK  132  A    between atoms: C_125  and  C_126
REMARK  133  A    between atoms: C_127  and  C_128
REMARK  134  A    between atoms: C_129  and  C_130
REMARK  135  A    between atoms: C_131  and  C_132
REMARK  136  A    between atoms: C_133  and  C_134
REMARK  137  A    between atoms: C_135  and  C_136
REMARK  138  A    between atoms: C_138  and  C_139
REMARK  139  A    between atoms: C_139  and  C_142
REMARK  140  A    between atoms: C_142  and  C_145
REMARK  141  A    between atoms: C_150  and  C_151
REMARK  142  A    between atoms: C_151  and  C_152
REMARK  143  A    between atoms: C_152  and  C_155
REMARK  144  A    between atoms: C_155  and  C_158
REMARK  145  A    between atoms: C_163  and  C_164
REMARK  146  A    between atoms: C_166  and  C_167
REMARK  147  A    between atoms: C_167  and  C_168
REMARK  148  A    between atoms: C_168  and  C_171
REMARK  149  A    between atoms: C_178  and  C_179
REMARK  150  A    between atoms: C_179  and  C_180
REMARK  151  A    between atoms: C_179  and  C_214
REMARK  152  A    between atoms: C_181  and  C_182
REMARK  153  A    between atoms: C_183  and  C_184
REMARK  154  A    between atoms: C_185  and  C_186
REMARK  155  A    between atoms: C_187  and  C_188
REMARK  156  A    between atoms: C_189  and  C_190
REMARK  157  A    between atoms: C_191  and  C_192
REMARK  158  A    between atoms: C_193  and  C_194
REMARK  159  A    between atoms: C_195  and  C_196
REMARK  160  A    between atoms: C_197  and  C_198
REMARK  161  A    between atoms: C_199  and  C_200
REMARK  162  A    between atoms: C_203  and  C_204
REMARK  163  A    between atoms: C_203  and  C_214
REMARK  164  A    between atoms: C_204  and  C_207
REMARK  165  A    between atoms: C_207  and  C_210
REMARK  166  A    between atoms: C_216  and  C_217
REMARK  167  A    between atoms: C_218  and  C_219
REMARK  168  A    between atoms: C_220  and  C_221
REMARK  169  A    between atoms: C_222  and  C_223
REMARK  170  A    between atoms: C_224  and  C_225
REMARK  171  A    between atoms: C_226  and  C_227
REMARK  172  A    between atoms: C_228  and  C_229
REMARK  173  A    between atoms: C_230  and  C_231
REMARK  174  A    between atoms: C_232  and  C_233
REMARK  175  A    between atoms: C_234  and  C_235
REMARK                            x       y       z     vdW  Elec       q    Type
REMARK                         _______ _______ _______ _____ _____    ______ ____
ROOT
ATOM      1  C   UNL     1     -14.500  10.820  24.169  0.00  0.00    +0.000 C 
ENDROOT
BRANCH   1   2
ATOM      2  C   UNL     1     -12.729  10.042  24.462  0.00  0.00    +0.000 C 
BRANCH   2   3
ATOM      3  C   UNL     1     -12.595   8.506  24.717  0.00  0.00    +0.000 C 
ATOM      4  C   UNL     1     -12.510   8.150  26.331  0.00  0.00    +0.000 C 
ATOM      5  C   UNL     1     -11.071   8.008  26.809  0.00  0.00    +0.000 C 
ATOM      6  C   UNL     1     -10.411   6.590  26.030  0.00  0.00    +0.000 C 
ATOM      7  C   UNL     1      -9.941   6.663  24.635  0.00  0.00    +0.000 C 
ATOM      8  C   UNL     1     -11.158   7.498  23.668  0.00  0.00    +0.000 C 
BRANCH   5   9
ATOM      9  C   UNL     1     -10.976   7.945  28.431  0.00  0.00    +0.000 C 
ATOM     10  C   UNL     1     -11.991   8.422  28.904  0.00  0.00    +0.000 C 
ATOM     11  C   UNL     1     -10.597   6.442  28.789  0.00  0.00    +0.000 C 
BRANCH   9  12
ATOM     12  C   UNL     1      -9.683   8.768  29.026  0.00  0.00    +0.000 C 
ATOM     13  C   UNL     1      -9.913   9.170  30.505  0.00  0.00    +0.000 C 
ATOM     14  C   UNL     1      -9.636  10.354  28.401  0.00  0.00    +0.000 C 
BRANCH  12  15
ATOM     15  C   UNL     1      -8.286   8.330  28.716  0.00  0.00    +0.000 C 
ATOM     16  C   UNL     1      -8.385   6.906  29.244  0.00  0.00    +0.000 C 
ATOM     17  C   UNL     1      -7.193   8.971  29.474  0.00  0.00    +0.000 C 
ATOM     18  C   UNL     1      -7.957   8.407  27.286  0.00  0.00    +0.000 C 
ENDBRANCH  12  15
ENDBRANCH   9  12
ENDBRANCH   5   9
BRANCH   7  19
ATOM     19  C   UNL     1      -9.016   5.473  24.138  0.00  0.00    +0.000 C 
BRANCH  19  20
ATOM     20  C   UNL     1      -9.817   4.281  23.501  0.00  0.00    +0.000 C 
ATOM     21  C   UNL     1     -11.042   3.829  24.392  0.00  0.00    +0.000 C 
BRANCH  20  22
ATOM     22  O   UNL     1     -10.456   4.745  22.256  0.00  0.00    +0.000 OA
BRANCH  22  23
ATOM     23  C   UNL     1     -10.976   3.736  21.435  0.00  0.00    +0.000 C 
BRANCH  23  24
ATOM     24  C   UNL     1     -11.517   4.330  20.143  0.00  0.00    +0.000 C 
BRANCH  24  25
ATOM     25  O   UNL     1     -12.670   5.054  20.425  0.00  0.00    +0.000 OA
BRANCH  25  26
ATOM     26  C   UNL     1     -13.815   4.562  19.745  0.00  0.00    +0.000 C 
BRANCH  26  27
ATOM     27  C   UNL     1     -14.400   5.598  18.886  0.00  0.00    +0.000 C 
BRANCH  27  28
ATOM     28  O   UNL     1     -14.319   5.199  17.568  0.00  0.00    +0.000 OA
BRANCH  28  29
ATOM     29  C   UNL     1     -13.912   3.859  17.382  0.00  0.00    +0.000 C 
BRANCH  29  30
ATOM     30  C   UNL     1     -12.942   3.796  16.225  0.00  0.00    +0.000 C 
BRANCH  30  31
ATOM     31  O   UNL     1     -12.768   2.456  15.885  0.00  0.00    +0.000 OA
BRANCH  31  32
ATOM     32  C   UNL     1     -11.852   2.315  14.783  0.00  0.00    +0.000 C 
BRANCH  32  33
ATOM     33  C   UNL     1     -10.860   3.487  14.845  0.00  0.00    +0.000 C 
BRANCH  33  34
ATOM     34  O   UNL     1      -9.595   3.007  14.521  0.00  0.00    +0.000 OA
BRANCH  34  35
ATOM     35  C   UNL     1      -9.450   2.612  13.142  0.00  0.00    +0.000 C 
BRANCH  35  36
ATOM     36  C   UNL     1      -9.743   3.739  12.197  0.00  0.00    +0.000 C 
BRANCH  36  37
ATOM     37  O   UNL     1      -8.567   3.892  11.350  0.00  0.00    +0.000 OA
BRANCH  37  38
ATOM     38  C   UNL     1      -8.678   5.046  10.555  0.00  0.00    +0.000 C 
BRANCH  38  39
ATOM     39  C   UNL     1      -9.864   5.052   9.676  0.00  0.00    +0.000 C 
BRANCH  39  40
ATOM     40  O   UNL     1      -9.378   5.084   8.252  0.00  0.00    +0.000 OA
BRANCH  40  41
ATOM     41  C   UNL     1     -10.279   5.748   7.398  0.00  0.00    +0.000 C 
BRANCH  41  42
ATOM     42  C   UNL     1     -10.981   4.795   6.495  0.00  0.00    +0.000 C 
BRANCH  42  43
ATOM     43  O   UNL     1     -12.015   4.169   7.145  0.00  0.00    +0.000 OA
BRANCH  43  44
ATOM     44  C   UNL     1     -13.302   4.445   6.672  0.00  0.00    +0.000 C 
BRANCH  44  45
ATOM     45  C   UNL     1     -13.969   3.233   6.125  0.00  0.00    +0.000 C 
BRANCH  45  46
ATOM     46  O   UNL     1     -13.865   2.201   7.111  0.00  0.00    +0.000 OA
BRANCH  46  47
ATOM     47  C   UNL     1     -15.016   2.225   7.939  0.00  0.00    +0.000 C 
BRANCH  47  48
ATOM     48  C   UNL     1     -14.601   1.684   9.370  0.00  0.00    +0.000 C 
BRANCH  48  49
ATOM     49  O   UNL     1     -15.741   1.406  10.105  0.00  0.00    +0.000 OA
BRANCH  49  50
ATOM     50  C   UNL     1     -15.606   0.439  11.092  0.00  0.00    +0.000 C 
BRANCH  50  52
ATOM     51  O   UNL     1     -15.116   2.004  12.824  0.00  0.00    +0.000 OA
ATOM     52  C   UNL     1     -14.543   0.889  12.114  0.00  0.00    +0.000 C 
ENDBRANCH  50  52
ENDBRANCH  49  50
ENDBRANCH  48  49
ENDBRANCH  47  48
ENDBRANCH  46  47
ENDBRANCH  45  46
ENDBRANCH  44  45
ENDBRANCH  43  44
ENDBRANCH  42  43
ENDBRANCH  41  42
ENDBRANCH  40  41
ENDBRANCH  39  40
ENDBRANCH  38  39
ENDBRANCH  37  38
ENDBRANCH  36  37
ENDBRANCH  35  36
ENDBRANCH  34  35
ENDBRANCH  33  34
ENDBRANCH  32  33
ENDBRANCH  31  32
ENDBRANCH  30  31
ENDBRANCH  29  30
ENDBRANCH  28  29
ENDBRANCH  27  28
ENDBRANCH  26  27
ENDBRANCH  25  26
ENDBRANCH  24  25
ENDBRANCH  23  24
ENDBRANCH  22  23
ENDBRANCH  20  22
ENDBRANCH  19  20
BRANCH  19  53
ATOM     53  C   UNL     1      -7.875   5.826  23.048  0.00  0.00    +0.000 C 
BRANCH  53  55
ATOM     54  C   UNL     1      -7.158   4.576  21.163  0.00  0.00    +0.000 C 
ATOM     55  C   UNL     1      -6.878   5.098  22.526  0.00  0.00    +0.000 C 
BRANCH  55  56
ATOM     56  C   UNL     1      -5.551   4.791  23.217  0.00  0.00    +0.000 C 
ATOM     57  C   UNL     1      -5.811   5.201  24.627  0.00  0.00    +0.000 C 
ATOM     58  C   UNL     1      -5.324   3.306  23.211  0.00  0.00    +0.000 C 
BRANCH  56  59
ATOM     59  C   UNL     1      -4.368   5.563  22.559  0.00  0.00    +0.000 C 
ATOM     60  C   UNL     1      -4.714   6.966  22.245  0.00  0.00    +0.000 C 
ATOM     61  C   UNL     1      -4.005   4.820  21.251  0.00  0.00    +0.000 C 
BRANCH  59  62
ATOM     62  C   UNL     1      -3.034   5.584  23.436  0.00  0.00    +0.000 C 
ATOM     63  C   UNL     1      -1.958   4.788  22.787  0.00  0.00    +0.000 C 
ATOM     64  C   UNL     1      -3.292   4.915  24.765  0.00  0.00    +0.000 C 
ATOM     65  C   UNL     1      -2.561   6.916  23.766  0.00  0.00    +0.000 C 
ENDBRANCH  59  62
ENDBRANCH  56  59
ENDBRANCH  55  56
ENDBRANCH  53  55
ENDBRANCH  19  53
ENDBRANCH   7  19
BRANCH   8  66
ATOM     66  O   UNL     1     -11.240   7.541  22.306  0.00  0.00    +0.000 OA
BRANCH  66  67
ATOM     67  C   UNL     1     -11.807   8.710  21.761  0.00  0.00    +0.000 C 
BRANCH  67  68
ATOM     68  C   UNL     1     -13.076   8.541  20.897  0.00  0.00    +0.000 C 
BRANCH  68  69
ATOM     69  O   UNL     1     -14.068   7.919  21.667  0.00  0.00    +0.000 OA
BRANCH  69  70
ATOM     70  C   UNL     1     -15.421   8.220  21.196  0.00  0.00    +0.000 C 
BRANCH  70  71
ATOM     71  C   UNL     1     -15.452   9.535  20.437  0.00  0.00    +0.000 C 
BRANCH  71  72
ATOM     72  O   UNL     1     -15.926   9.267  18.995  0.00  0.00    +0.000 OA
BRANCH  72  73
ATOM     73  C   UNL     1     -17.051   8.399  18.984  0.00  0.00    +0.000 C 
BRANCH  73  74
ATOM     74  C   UNL     1     -18.308   9.221  18.672  0.00  0.00    +0.000 C 
BRANCH  74  75
ATOM     75  O   UNL     1     -19.363   8.399  18.287  0.00  0.00    +0.000 OA
BRANCH  75  76
ATOM     76  C   UNL     1     -20.471   9.120  17.733  0.00  0.00    +0.000 C 
BRANCH  76  77
ATOM     77  C   UNL     1     -21.770   8.383  17.920  0.00  0.00    +0.000 C 
BRANCH  77  78
ATOM     78  O   UNL     1     -22.759   9.400  18.000  0.00  0.00    +0.000 OA
BRANCH  78  79
ATOM     79  C   UNL     1     -24.129   8.880  18.063  0.00  0.00    +0.000 C 
BRANCH  79  80
ATOM     80  C   UNL     1     -24.358   8.135  16.804  0.00  0.00    +0.000 C 
BRANCH  80  81
ATOM     81  O   UNL     1     -24.809   6.774  17.036  0.00  0.00    +0.000 OA
BRANCH  81  82
ATOM     82  C   UNL     1     -24.905   6.437  18.382  0.00  0.00    +0.000 C 
BRANCH  82  83
ATOM     83  C   UNL     1     -24.015   5.218  18.697  0.00  0.00    +0.000 C 
BRANCH  83  84
ATOM     84  O   UNL     1     -23.429   4.719  17.519  0.00  0.00    +0.000 OA
BRANCH  84  85
ATOM     85  C   UNL     1     -22.981   3.458  17.529  0.00  0.00    +0.000 C 
BRANCH  85  86
ATOM     86  C   UNL     1     -24.161   2.462  17.555  0.00  0.00    +0.000 C 
BRANCH  86  87
ATOM     87  O   UNL     1     -25.097   2.690  16.534  0.00  0.00    +0.000 OA
BRANCH  87  88
ATOM     88  C   UNL     1     -25.432   1.562  15.805  0.00  0.00    +0.000 C 
BRANCH  88  89
ATOM     89  C   UNL     1     -25.005   1.698  14.353  0.00  0.00    +0.000 C 
BRANCH  89  90
ATOM     90  O   UNL     1     -24.216   2.872  14.198  0.00  0.00    +0.000 OA
BRANCH  90  91
ATOM     91  C   UNL     1     -23.870   3.020  12.805  0.00  0.00    +0.000 C 
BRANCH  91  92
ATOM     92  C   UNL     1     -25.022   2.490  11.989  0.00  0.00    +0.000 C 
BRANCH  92  93
ATOM     93  O   UNL     1     -25.770   3.597  11.495  0.00  0.00    +0.000 OA
BRANCH  93  94
ATOM     94  C   UNL     1     -27.129   3.461  11.665  0.00  0.00    +0.000 C 
BRANCH  94  96
ATOM     95  O   UNL     1     -27.732   5.764  11.995  0.00  0.00    +0.000 OA
ATOM     96  C   UNL     1     -27.869   4.683  11.111  0.00  0.00    +0.000 C 
ENDBRANCH  94  96
ENDBRANCH  93  94
ENDBRANCH  92  93
ENDBRANCH  91  92
ENDBRANCH  90  91
ENDBRANCH  89  90
ENDBRANCH  88  89
ENDBRANCH  87  88
ENDBRANCH  86  87
ENDBRANCH  85  86
ENDBRANCH  84  85
ENDBRANCH  83  84
ENDBRANCH  82  83
ENDBRANCH  81  82
ENDBRANCH  80  81
ENDBRANCH  79  80
ENDBRANCH  78  79
ENDBRANCH  77  78
ENDBRANCH  76  77
ENDBRANCH  75  76
ENDBRANCH  74  75
ENDBRANCH  73  74
ENDBRANCH  72  73
ENDBRANCH  71  72
ENDBRANCH  70  71
ENDBRANCH  69  70
ENDBRANCH  68  69
ENDBRANCH  67  68
ENDBRANCH  66  67
ENDBRANCH   8  66
ENDBRANCH   2   3
ENDBRANCH   1   2
BRANCH   1  97
ATOM     97  C   UNL     1     -14.921  12.253  24.436  0.00  0.00    +0.000 C 
BRANCH  97  98
ATOM     98  C   UNL     1     -16.515  12.466  24.262  0.00  0.00    +0.000 C 
ATOM     99  C   UNL     1     -17.234  12.692  25.626  0.00  0.00    +0.000 C 
ATOM    100  C   UNL     1     -18.811  12.910  25.575  0.00  0.00    +0.000 C 
ATOM    101  C   UNL     1     -20.146  13.125  26.140  0.00  0.00    +0.000 C 
ATOM    102  C   UNL     1     -21.438  12.520  25.645  0.00  0.00    +0.000 C 
ATOM    103  C   UNL     1     -22.697  12.762  26.317  0.00  0.00    +0.000 C 
ATOM    104  C   UNL     1     -22.639  13.551  27.518  0.00  0.00    +0.000 C 
ATOM    105  C   UNL     1     -21.495  14.199  27.970  0.00  0.00    +0.000 C 
ATOM    106  C   UNL     1     -20.380  13.949  27.228  0.00  0.00    +0.000 C 
ATOM    107  C   UNL     1     -19.094  12.583  24.855  0.00  0.00    +0.000 C 
ATOM    108  C   UNL     1     -18.746  12.479  23.553  0.00  0.00    +0.000 C 
ATOM    109  C   UNL     1     -17.303  12.769  23.112  0.00  0.00    +0.000 C 
BRANCH 103 110
ATOM    110  C   UNL     1     -23.985  12.212  25.711  0.00  0.00    +0.000 C 
ATOM    111  C   UNL     1     -24.145  13.010  24.385  0.00  0.00    +0.000 C 
ATOM    112  C   UNL     1     -23.776  10.829  25.298  0.00  0.00    +0.000 C 
BRANCH 110 113
ATOM    113  C   UNL     1     -25.329  12.293  26.471  0.00  0.00    +0.000 C 
ATOM    114  C   UNL     1     -25.518  13.731  26.840  0.00  0.00    +0.000 C 
ATOM    115  C   UNL     1     -26.454  11.817  25.547  0.00  0.00    +0.000 C 
BRANCH 113 116
ATOM    116  C   UNL     1     -25.428  11.368  27.766  0.00  0.00    +0.000 C 
ATOM    117  C   UNL     1     -24.119  10.648  28.021  0.00  0.00    +0.000 C 
ATOM    118  C   UNL     1     -26.408  10.270  27.550  0.00  0.00    +0.000 C 
ATOM    119  C   UNL     1     -25.857  12.164  28.966  0.00  0.00    +0.000 C 
ENDBRANCH 113 116
ENDBRANCH 110 113
ENDBRANCH 103 110
BRANCH 108 120
ATOM    120  C   UNL     1     -19.610  11.523  22.651  0.00  0.00    +0.000 C 
ATOM    121  C   UNL     1     -20.441  10.651  23.606  0.00  0.00    +0.000 C 
ATOM    122  C   UNL     1     -18.667  10.587  21.986  0.00  0.00    +0.000 C 
BRANCH 120 123
ATOM    123  C   UNL     1     -20.732  12.199  21.683  0.00  0.00    +0.000 C 
ATOM    124  C   UNL     1     -20.642  11.763  20.288  0.00  0.00    +0.000 C 
ATOM    125  C   UNL     1     -22.120  11.814  22.129  0.00  0.00    +0.000 C 
BRANCH 123 126
ATOM    126  C   UNL     1     -20.647  13.761  21.583  0.00  0.00    +0.000 C 
ATOM    127  C   UNL     1     -21.211  14.338  22.835  0.00  0.00    +0.000 C 
ATOM    128  C   UNL     1     -21.519  14.279  20.471  0.00  0.00    +0.000 C 
ATOM    129  C   UNL     1     -19.263  14.194  21.280  0.00  0.00    +0.000 C 
ENDBRANCH 123 126
ENDBRANCH 120 123
ENDBRANCH 108 120
BRANCH 106 130
ATOM    130  O   UNL     1     -19.261  14.711  27.469  0.00  0.00    +0.000 OA
BRANCH 130 131
ATOM    131  C   UNL     1     -19.080  15.320  28.770  0.00  0.00    +0.000 C 
BRANCH 131 132
ATOM    132  C   UNL     1     -17.799  16.131  28.710  0.00  0.00    +0.000 C 
BRANCH 132 133
ATOM    133  O   UNL     1     -17.946  17.194  27.835  0.00  0.00    +0.000 OA
BRANCH 133 134
ATOM    134  C   UNL     1     -18.876  18.166  28.286  0.00  0.00    +0.000 C 
BRANCH 134 135
ATOM    135  C   UNL     1     -19.833  18.491  27.192  0.00  0.00    +0.000 C 
BRANCH 135 136
ATOM    136  O   UNL     1     -19.296  18.176  26.229  0.00  0.00    +0.000 OA
BRANCH 136 137
ATOM    137  C   UNL     1     -20.154  17.657  25.274  0.00  0.00    +0.000 C 
BRANCH 137 138
ATOM    138  C   UNL     1     -19.420  17.173  23.978  0.00  0.00    +0.000 C 
BRANCH 138 139
ATOM    139  O   UNL     1     -18.365  16.419  24.367  0.00  0.00    +0.000 OA
BRANCH 139 140
ATOM    140  C   UNL     1     -17.246  16.516  23.460  0.00  0.00    +0.000 C 
BRANCH 140 141
ATOM    141  C   UNL     1     -17.672  17.260  22.233  0.00  0.00    +0.000 C 
BRANCH 141 142
ATOM    142  O   UNL     1     -16.558  17.477  21.395  0.00  0.00    +0.000 OA
BRANCH 142 143
ATOM    143  C   UNL     1     -16.873  17.395  20.007  0.00  0.00    +0.000 C 
BRANCH 143 144
ATOM    144  C   UNL     1     -15.841  16.486  19.289  0.00  0.00    +0.000 C 
BRANCH 144 145
ATOM    145  O   UNL     1     -15.459  17.022  18.011  0.00  0.00    +0.000 OA
BRANCH 145 146
ATOM    146  C   UNL     1     -16.481  17.275  17.036  0.00  0.00    +0.000 C 
BRANCH 146 147
ATOM    147  C   UNL     1     -16.138  16.702  15.684  0.00  0.00    +0.000 C 
BRANCH 147 148
ATOM    148  O   UNL     1     -15.739  17.791  14.832  0.00  0.00    +0.000 OA
BRANCH 148 149
ATOM    149  C   UNL     1     -14.941  17.428  13.717  0.00  0.00    +0.000 C 
BRANCH 149 150
ATOM    150  C   UNL     1     -13.570  18.059  13.841  0.00  0.00    +0.000 C 
BRANCH 150 151
ATOM    151  O   UNL     1     -12.765  17.229  14.689  0.00  0.00    +0.000 OA
BRANCH 151 152
ATOM    152  C   UNL     1     -11.642  16.663  14.110  0.00  0.00    +0.000 C 
BRANCH 152 153
ATOM    153  C   UNL     1     -10.712  17.722  13.545  0.00  0.00    +0.000 C 
BRANCH 153 154
ATOM    154  O   UNL     1      -9.456  17.652  14.218  0.00  0.00    +0.000 OA
BRANCH 154 155
ATOM    155  C   UNL     1      -9.362  16.619  15.155  0.00  0.00    +0.000 C 
BRANCH 155 156
ATOM    156  C   UNL     1      -7.892  16.146  15.287  0.00  0.00    +0.000 C 
BRANCH 156 157
ATOM    157  O   UNL     1      -7.126  16.874  14.322  0.00  0.00    +0.000 OA
BRANCH 157 158
ATOM    158  C   UNL     1      -5.751  16.875  14.604  0.00  0.00    +0.000 C 
BRANCH 158 160
ATOM    159  O   UNL     1      -6.118  17.462  12.229  0.00  0.00    +0.000 OA
ATOM    160  C   UNL     1      -5.098  17.084  13.309  0.00  0.00    +0.000 C 
ENDBRANCH 158 160
ENDBRANCH 157 158
ENDBRANCH 156 157
ENDBRANCH 155 156
ENDBRANCH 154 155
ENDBRANCH 153 154
ENDBRANCH 152 153
ENDBRANCH 151 152
ENDBRANCH 150 151
ENDBRANCH 149 150
ENDBRANCH 148 149
ENDBRANCH 147 148
ENDBRANCH 146 147
ENDBRANCH 145 146
ENDBRANCH 144 145
ENDBRANCH 143 144
ENDBRANCH 142 143
ENDBRANCH 141 142
ENDBRANCH 140 141
ENDBRANCH 139 140
ENDBRANCH 138 139
ENDBRANCH 137 138
ENDBRANCH 136 137
ENDBRANCH 135 136
ENDBRANCH 134 135
ENDBRANCH 133 134
ENDBRANCH 132 133
ENDBRANCH 131 132
ENDBRANCH 130 131
ENDBRANCH 106 130
BRANCH  99 161
ATOM    161  O   UNL     1     -16.824  12.003  26.740  0.00  0.00    +0.000 OA
BRANCH 161 162
ATOM    162  C   UNL     1     -16.787  12.667  28.008  0.00  0.00    +0.000 C 
BRANCH 162 163
ATOM    163  C   UNL     1     -16.663  11.762  29.223  0.00  0.00    +0.000 C 
BRANCH 163 164
ATOM    164  O   UNL     1     -15.742  10.741  28.979  0.00  0.00    +0.000 OA
BRANCH 164 165
ATOM    165  C   UNL     1     -15.064  10.262  30.109  0.00  0.00    +0.000 C 
BRANCH 165 166
ATOM    166  C   UNL     1     -15.938   9.380  31.005  0.00  0.00    +0.000 C 
BRANCH 166 167
ATOM    167  O   UNL     1     -15.178   9.001  32.180  0.00  0.00    +0.000 OA
BRANCH 167 168
ATOM    168  C   UNL     1     -16.031   8.803  33.288  0.00  0.00    +0.000 C 
BRANCH 168 169
ATOM    169  C   UNL     1     -17.492   8.859  32.865  0.00  0.00    +0.000 C 
BRANCH 169 170
ATOM    170  O   UNL     1     -18.251   9.508  33.837  0.00  0.00    +0.000 OA
BRANCH 170 171
ATOM    171  C   UNL     1     -19.508   9.954  33.369  0.00  0.00    +0.000 C 
BRANCH 171 172
ATOM    172  C   UNL     1     -19.839   9.361  31.962  0.00  0.00    +0.000 C 
BRANCH 172 173
ATOM    173  O   UNL     1     -21.138   8.798  32.037  0.00  0.00    +0.000 OA
BRANCH 173 174
ATOM    174  C   UNL     1     -22.145   9.856  31.990  0.00  0.00    +0.000 C 
BRANCH 174 175
ATOM    175  C   UNL     1     -23.536   9.230  31.900  0.00  0.00    +0.000 C 
BRANCH 175 176
ATOM    176  O   UNL     1     -23.408   7.982  31.301  0.00  0.00    +0.000 OA
BRANCH 176 177
ATOM    177  C   UNL     1     -24.534   7.645  30.507  0.00  0.00    +0.000 C 
BRANCH 177 178
ATOM    178  C   UNL     1     -24.722   6.138  30.624  0.00  0.00    +0.000 C 
BRANCH 178 179
ATOM    179  O   UNL     1     -25.251   5.629  29.413  0.00  0.00    +0.000 OA
BRANCH 179 180
ATOM    180  C   UNL     1     -25.738   6.670  28.526  0.00  0.00    +0.000 C 
BRANCH 180 181
ATOM    181  C   UNL     1     -25.399   6.316  27.078  0.00  0.00    +0.000 C 
BRANCH 181 182
ATOM    182  O   UNL     1     -26.189   5.247  26.637  0.00  0.00    +0.000 OA
BRANCH 182 183
ATOM    183  C   UNL     1     -25.500   4.409  25.645  0.00  0.00    +0.000 C 
BRANCH 183 184
ATOM    184  C   UNL     1     -25.969   4.642  24.209  0.00  0.00    +0.000 C 
BRANCH 184 185
ATOM    185  O   UNL     1     -25.230   3.778  23.406  0.00  0.00    +0.000 OA
BRANCH 185 186
ATOM    186  C   UNL     1     -25.930   3.400  22.208  0.00  0.00    +0.000 C 
BRANCH 186 187
ATOM    187  C   UNL     1     -24.994   2.709  21.242  0.00  0.00    +0.000 C 
BRANCH 187 188
ATOM    188  O   UNL     1     -23.682   2.629  21.940  0.00  0.00    +0.000 OA
BRANCH 188 189
ATOM    189  C   UNL     1     -22.739   1.893  21.133  0.00  0.00    +0.000 C 
BRANCH 189 191
ATOM    190  O   UNL     1     -23.102  -0.043  22.446  0.00  0.00    +0.000 OA
ATOM    191  C   UNL     1     -23.177   0.446  21.149  0.00  0.00    +0.000 C 
ENDBRANCH 189 191
ENDBRANCH 188 189
ENDBRANCH 187 188
ENDBRANCH 186 187
ENDBRANCH 185 186
ENDBRANCH 184 185
ENDBRANCH 183 184
ENDBRANCH 182 183
ENDBRANCH 181 182
ENDBRANCH 180 181
ENDBRANCH 179 180
ENDBRANCH 178 179
ENDBRANCH 177 178
ENDBRANCH 176 177
ENDBRANCH 175 176
ENDBRANCH 174 175
ENDBRANCH 173 174
ENDBRANCH 172 173
ENDBRANCH 171 172
ENDBRANCH 170 171
ENDBRANCH 169 170
ENDBRANCH 168 169
ENDBRANCH 167 168
ENDBRANCH 166 167
ENDBRANCH 165 166
ENDBRANCH 164 165
ENDBRANCH 163 164
ENDBRANCH 162 163
ENDBRANCH 161 162
ENDBRANCH  99 161
ENDBRANCH  97  98
BRANCH  97 192
ATOM    192  C   UNL     1     -13.973  12.496  25.477  0.00  0.00    +0.000 C 
BRANCH 192 193
ATOM    193  C   UNL     1     -13.795  13.720  26.218  0.00  0.00    +0.000 C 
ATOM    194  C   UNL     1     -14.400  14.971  25.788  0.00  0.00    +0.000 C 
BRANCH 193 195
ATOM    195  C   UNL     1     -12.972  13.778  27.441  0.00  0.00    +0.000 C 
ATOM    196  C   UNL     1     -13.796  14.543  28.490  0.00  0.00    +0.000 C 
ATOM    197  C   UNL     1     -12.723  12.378  28.017  0.00  0.00    +0.000 C 
BRANCH 195 198
ATOM    198  C   UNL     1     -11.571  14.524  27.142  0.00  0.00    +0.000 C 
ATOM    199  C   UNL     1     -11.222  14.478  25.720  0.00  0.00    +0.000 C 
ATOM    200  C   UNL     1     -10.472  13.914  27.949  0.00  0.00    +0.000 C 
BRANCH 198 201
ATOM    201  C   UNL     1     -11.443  16.050  27.513  0.00  0.00    +0.000 C 
ATOM    202  C   UNL     1     -10.181  16.374  28.253  0.00  0.00    +0.000 C 
ATOM    203  C   UNL     1     -12.556  16.519  28.411  0.00  0.00    +0.000 C 
ATOM    204  C   UNL     1     -11.367  16.853  26.302  0.00  0.00    +0.000 C 
ENDBRANCH 198 201
ENDBRANCH 195 198
ENDBRANCH 193 195
ENDBRANCH 192 193
ENDBRANCH  97 192
ENDBRANCH   1  97
BRANCH   1 205
ATOM    205  O   UNL     1     -15.171   9.912  25.018  0.00  0.00    +0.000 OA
BRANCH 205 206
ATOM    206  C   UNL     1     -16.183   9.177  24.369  0.00  0.00    +0.000 C 
BRANCH 206 207
ATOM    207  C   UNL     1     -17.382   8.981  25.252  0.00  0.00    +0.000 C 
BRANCH 207 208
ATOM    208  O   UNL     1     -16.994   8.658  26.593  0.00  0.00    +0.000 OA
BRANCH 208 209
ATOM    209  C   UNL     1     -18.105   8.602  27.512  0.00  0.00    +0.000 C 
BRANCH 209 210
ATOM    210  C   UNL     1     -19.410   8.792  26.780  0.00  0.00    +0.000 C 
BRANCH 210 211
ATOM    211  C   UNL     1     -20.438   9.593  27.581  0.00  0.00    +0.000 C 
BRANCH 211 212
ATOM    212  C   UNL     1     -21.216   8.702  28.524  0.00  0.00    +0.000 C 
BRANCH 212 213
ATOM    213  C   UNL     1     -21.940   7.632  27.775  0.00  0.00    +0.000 C 
BRANCH 213 214
ATOM    214  O   UNL     1     -21.968   6.467  28.461  0.00  0.00    +0.000 OA
BRANCH 214 215
ATOM    215  C   UNL     1     -20.968   6.427  29.517  0.00  0.00    +0.000 C 
BRANCH 215 216
ATOM    216  C   UNL     1     -20.675   5.017  29.985  0.00  0.00    +0.000 C 
BRANCH 216 217
ATOM    217  O   UNL     1     -21.826   4.303  30.076  0.00  0.00    +0.000 OA
BRANCH 217 218
ATOM    218  C   UNL     1     -22.378   3.143  29.316  0.00  0.00    +0.000 C 
BRANCH 218 219
ATOM    219  C   UNL     1     -23.133   2.276  30.379  0.00  0.00    +0.000 C 
BRANCH 219 220
ATOM    220  O   UNL     1     -22.583   1.014  30.457  0.00  0.00    +0.000 OA
BRANCH 220 221
ATOM    221  C   UNL     1     -21.862   0.704  31.662  0.00  0.00    +0.000 C 
BRANCH 221 222
ATOM    222  C   UNL     1     -22.206  -0.718  32.097  0.00  0.00    +0.000 C 
BRANCH 222 223
ATOM    223  O   UNL     1     -21.154  -1.610  31.832  0.00  0.00    +0.000 OA
BRANCH 223 224
ATOM    224  C   UNL     1     -19.890  -1.175  32.298  0.00  0.00    +0.000 C 
BRANCH 224 225
ATOM    225  C   UNL     1     -18.823  -1.863  31.439  0.00  0.00    +0.000 C 
BRANCH 225 226
ATOM    226  O   UNL     1     -19.036  -1.598  30.056  0.00  0.00    +0.000 OA
BRANCH 226 227
ATOM    227  C   UNL     1     -18.179  -2.339  29.207  0.00  0.00    +0.000 C 
BRANCH 227 228
ATOM    228  C   UNL     1     -18.282  -3.797  29.578  0.00  0.00    +0.000 C 
BRANCH 228 229
ATOM    229  O   UNL     1     -17.036  -4.359  29.889  0.00  0.00    +0.000 OA
BRANCH 229 230
ATOM    230  C   UNL     1     -17.138  -5.451  30.763  0.00  0.00    +0.000 C 
BRANCH 230 231
ATOM    231  C   UNL     1     -15.836  -5.685  31.468  0.00  0.00    +0.000 C 
BRANCH 231 232
ATOM    232  O   UNL     1     -15.608  -7.069  31.565  0.00  0.00    +0.000 OA
BRANCH 232 233
ATOM    233  C   UNL     1     -14.528  -7.400  32.407  0.00  0.00    +0.000 C 
BRANCH 233 234
ATOM    234  C   UNL     1     -13.223  -7.315  31.645  0.00  0.00    +0.000 C 
ATOM    235  O   UNL     1     -12.190  -6.964  32.539  0.00  0.00    +0.000 OA
ENDBRANCH 233 234
ENDBRANCH 232 233
ENDBRANCH 231 232
ENDBRANCH 230 231
ENDBRANCH 229 230
ENDBRANCH 228 229
ENDBRANCH 227 228
ENDBRANCH 226 227
ENDBRANCH 225 226
ENDBRANCH 224 225
ENDBRANCH 223 224
ENDBRANCH 222 223
ENDBRANCH 221 222
ENDBRANCH 220 221
ENDBRANCH 219 220
ENDBRANCH 218 219
ENDBRANCH 217 218
ENDBRANCH 216 217
ENDBRANCH 215 216
ENDBRANCH 214 215
ENDBRANCH 213 214
ENDBRANCH 212 213
ENDBRANCH 211 212
ENDBRANCH 210 211
ENDBRANCH 209 210
ENDBRANCH 208 209
ENDBRANCH 207 208
ENDBRANCH 206 207
ENDBRANCH 205 206
ENDBRANCH   1 205
TORSDOF 175
ENDMDL
MODEL 8
REMARK VINA RESULT:      -4.5      2.517      6.016
REMARK  Name = human_CD1d_Tyloxapol_pred.rank_0
REMARK  175 active torsions:
REMARK  status: ('A' for Active; 'I' for Inactive)
REMARK    1  A    between atoms: C_1  and  C_3
REMARK    2  A    between atoms: C_3  and  O_4
REMARK    3  A    between atoms: O_4  and  C_5
REMARK    4  A    between atoms: C_5  and  C_7
REMARK    5  A    between atoms: O_6  and  C_7
REMARK    6  A    between atoms: O_6  and  C_9
REMARK    7  A    between atoms: O_8  and  C_11
REMARK    8  A    between atoms: O_8  and  C_13
REMARK    9  A    between atoms: C_9  and  C_11
REMARK   10  A    between atoms: O_10  and  C_15
REMARK   11  A    between atoms: O_10  and  C_17
REMARK   12  A    between atoms: O_12  and  C_19
REMARK   13  A    between atoms: O_12  and  C_21
REMARK   14  A    between atoms: C_13  and  C_15
REMARK   15  A    between atoms: O_14  and  C_23
REMARK   16  A    between atoms: O_14  and  C_25
REMARK   17  A    between atoms: O_16  and  C_27
REMARK   18  A    between atoms: O_16  and  C_29
REMARK   19  A    between atoms: C_17  and  C_19
REMARK   20  A    between atoms: O_18  and  C_37
REMARK   21  A    between atoms: O_18  and  C_39
REMARK   22  A    between atoms: O_20  and  C_41
REMARK   23  A    between atoms: O_20  and  C_43
REMARK   24  A    between atoms: C_21  and  C_23
REMARK   25  A    between atoms: O_22  and  C_49
REMARK   26  A    between atoms: O_22  and  C_51
REMARK   27  A    between atoms: O_24  and  C_53
REMARK   28  A    between atoms: O_24  and  C_55
REMARK   29  A    between atoms: C_25  and  C_27
REMARK   30  A    between atoms: O_26  and  C_57
REMARK   31  A    between atoms: O_26  and  C_59
REMARK   32  A    between atoms: O_28  and  C_61
REMARK   33  A    between atoms: O_28  and  C_63
REMARK   34  A    between atoms: C_29  and  C_31
REMARK   35  A    between atoms: O_30  and  C_65
REMARK   36  A    between atoms: O_30  and  C_67
REMARK   37  A    between atoms: C_31  and  C_33
REMARK   38  A    between atoms: O_32  and  C_69
REMARK   39  A    between atoms: O_32  and  C_71
REMARK   40  A    between atoms: C_33  and  C_35
REMARK   41  A    between atoms: O_34  and  C_73
REMARK   42  A    between atoms: O_34  and  C_75
REMARK   43  A    between atoms: C_35  and  C_37
REMARK   44  A    between atoms: O_36  and  C_77
REMARK   45  A    between atoms: O_36  and  C_79
REMARK   46  A    between atoms: O_38  and  C_81
REMARK   47  A    between atoms: O_38  and  C_83
REMARK   48  A    between atoms: C_39  and  C_41
REMARK   49  A    between atoms: O_40  and  C_85
REMARK   50  A    between atoms: O_40  and  C_87
REMARK   51  A    between atoms: C_43  and  C_45
REMARK   52  A    between atoms: C_43  and  C_163
REMARK   53  A    between atoms: O_44  and  C_116
REMARK   54  A    between atoms: O_44  and  C_117
REMARK   55  A    between atoms: C_45  and  C_47
REMARK   56  A    between atoms: C_45  and  C_150
REMARK   57  A    between atoms: O_46  and  C_118
REMARK   58  A    between atoms: O_46  and  C_119
REMARK   59  A    between atoms: O_48  and  C_120
REMARK   60  A    between atoms: O_48  and  C_121
REMARK   61  A    between atoms: O_50  and  C_122
REMARK   62  A    between atoms: O_50  and  C_123
REMARK   63  A    between atoms: C_51  and  C_53
REMARK   64  A    between atoms: O_52  and  C_124
REMARK   65  A    between atoms: O_52  and  C_125
REMARK   66  A    between atoms: O_54  and  C_126
REMARK   67  A    between atoms: O_54  and  C_127
REMARK   68  A    between atoms: C_55  and  C_57
REMARK   69  A    between atoms: O_56  and  C_128
REMARK   70  A    between atoms: O_56  and  C_129
REMARK   71  A    between atoms: O_58  and  C_130
REMARK   72  A    between atoms: O_58  and  C_131
REMARK   73  A    between atoms: C_59  and  C_61
REMARK   74  A    between atoms: O_60  and  C_132
REMARK   75  A    between atoms: O_60  and  C_133
REMARK   76  A    between atoms: O_62  and  C_134
REMARK   77  A    between atoms: O_62  and  C_135
REMARK   78  A    between atoms: C_63  and  C_65
REMARK   79  A    between atoms: O_66  and  C_180
REMARK   80  A    between atoms: O_66  and  C_181
REMARK   81  A    between atoms: C_67  and  C_69
REMARK   82  A    between atoms: O_68  and  C_182
REMARK   83  A    between atoms: O_68  and  C_183
REMARK   84  A    between atoms: O_70  and  C_184
REMARK   85  A    between atoms: O_70  and  C_185
REMARK   86  A    between atoms: C_71  and  C_73
REMARK   87  A    between atoms: O_72  and  C_186
REMARK   88  A    between atoms: O_72  and  C_187
REMARK   89  A    between atoms: O_74  and  C_188
REMARK   90  A    between atoms: O_74  and  C_189
REMARK   91  A    between atoms: C_75  and  C_77
REMARK   92  A    between atoms: O_76  and  C_190
REMARK   93  A    between atoms: O_76  and  C_191
REMARK   94  A    between atoms: O_78  and  C_192
REMARK   95  A    between atoms: O_78  and  C_193
REMARK   96  A    between atoms: C_79  and  C_81
REMARK   97  A    between atoms: O_80  and  C_194
REMARK   98  A    between atoms: O_80  and  C_195
REMARK   99  A    between atoms: O_82  and  C_196
REMARK  100  A    between atoms: O_82  and  C_197
REMARK  101  A    between atoms: C_83  and  C_85
REMARK  102  A    between atoms: O_84  and  C_198
REMARK  103  A    between atoms: O_84  and  C_199
REMARK  104  A    between atoms: C_87  and  C_89
REMARK  105  A    between atoms: O_88  and  C_215
REMARK  106  A    between atoms: O_88  and  C_216
REMARK  107  A    between atoms: O_90  and  C_217
REMARK  108  A    between atoms: O_90  and  C_218
REMARK  109  A    between atoms: O_92  and  C_219
REMARK  110  A    between atoms: O_92  and  C_220
REMARK  111  A    between atoms: O_94  and  C_221
REMARK  112  A    between atoms: O_94  and  C_222
REMARK  113  A    between atoms: O_96  and  C_223
REMARK  114  A    between atoms: O_96  and  C_224
REMARK  115  A    between atoms: C_97  and  C_99
REMARK  116  A    between atoms: O_98  and  C_225
REMARK  117  A    between atoms: O_98  and  C_226
REMARK  118  A    between atoms: C_99  and  C_105
REMARK  119  A    between atoms: O_100  and  C_227
REMARK  120  A    between atoms: O_100  and  C_228
REMARK  121  A    between atoms: O_102  and  C_229
REMARK  122  A    between atoms: O_102  and  C_230
REMARK  123  A    between atoms: O_104  and  C_231
REMARK  124  A    between atoms: O_104  and  C_232
REMARK  125  A    between atoms: C_105  and  C_107
REMARK  126  A    between atoms: O_106  and  C_233
REMARK  127  A    between atoms: O_106  and  C_234
REMARK  128  A    between atoms: C_117  and  C_118
REMARK  129  A    between atoms: C_119  and  C_120
REMARK  130  A    between atoms: C_121  and  C_122
REMARK  131  A    between atoms: C_123  and  C_124
REMARK  132  A    between atoms: C_125  and  C_126
REMARK  133  A    between atoms: C_127  and  C_128
REMARK  134  A    between atoms: C_129  and  C_130
REMARK  135  A    between atoms: C_131  and  C_132
REMARK  136  A    between atoms: C_133  and  C_134
REMARK  137  A    between atoms: C_135  and  C_136
REMARK  138  A    between atoms: C_138  and  C_139
REMARK  139  A    between atoms: C_139  and  C_142
REMARK  140  A    between atoms: C_142  and  C_145
REMARK  141  A    between atoms: C_150  and  C_151
REMARK  142  A    between atoms: C_151  and  C_152
REMARK  143  A    between atoms: C_152  and  C_155
REMARK  144  A    between atoms: C_155  and  C_158
REMARK  145  A    between atoms: C_163  and  C_164
REMARK  146  A    between atoms: C_166  and  C_167
REMARK  147  A    between atoms: C_167  and  C_168
REMARK  148  A    between atoms: C_168  and  C_171
REMARK  149  A    between atoms: C_178  and  C_179
REMARK  150  A    between atoms: C_179  and  C_180
REMARK  151  A    between atoms: C_179  and  C_214
REMARK  152  A    between atoms: C_181  and  C_182
REMARK  153  A    between atoms: C_183  and  C_184
REMARK  154  A    between atoms: C_185  and  C_186
REMARK  155  A    between atoms: C_187  and  C_188
REMARK  156  A    between atoms: C_189  and  C_190
REMARK  157  A    between atoms: C_191  and  C_192
REMARK  158  A    between atoms: C_193  and  C_194
REMARK  159  A    between atoms: C_195  and  C_196
REMARK  160  A    between atoms: C_197  and  C_198
REMARK  161  A    between atoms: C_199  and  C_200
REMARK  162  A    between atoms: C_203  and  C_204
REMARK  163  A    between atoms: C_203  and  C_214
REMARK  164  A    between atoms: C_204  and  C_207
REMARK  165  A    between atoms: C_207  and  C_210
REMARK  166  A    between atoms: C_216  and  C_217
REMARK  167  A    between atoms: C_218  and  C_219
REMARK  168  A    between atoms: C_220  and  C_221
REMARK  169  A    between atoms: C_222  and  C_223
REMARK  170  A    between atoms: C_224  and  C_225
REMARK  171  A    between atoms: C_226  and  C_227
REMARK  172  A    between atoms: C_228  and  C_229
REMARK  173  A    between atoms: C_230  and  C_231
REMARK  174  A    between atoms: C_232  and  C_233
REMARK  175  A    between atoms: C_234  and  C_235
REMARK                            x       y       z     vdW  Elec       q    Type
REMARK                         _______ _______ _______ _____ _____    ______ ____
ROOT
ATOM      1  C   UNL     1     -13.991  10.875  25.354  0.00  0.00    +0.000 C 
ENDROOT
BRANCH   1   2
ATOM      2  C   UNL     1     -13.239  10.279  27.059  0.00  0.00    +0.000 C 
BRANCH   2   3
ATOM      3  C   UNL     1     -12.741   8.805  27.207  0.00  0.00    +0.000 C 
ATOM      4  C   UNL     1     -11.769   8.609  28.533  0.00  0.00    +0.000 C 
ATOM      5  C   UNL     1     -10.292   8.711  28.177  0.00  0.00    +0.000 C 
ATOM      6  C   UNL     1      -9.913   7.335  27.170  0.00  0.00    +0.000 C 
ATOM      7  C   UNL     1     -10.259   7.349  25.737  0.00  0.00    +0.000 C 
ATOM      8  C   UNL     1     -11.920   7.917  25.559  0.00  0.00    +0.000 C 
BRANCH   5   9
ATOM      9  C   UNL     1      -9.356   8.807  29.503  0.00  0.00    +0.000 C 
ATOM     10  C   UNL     1     -10.064   9.015  30.471  0.00  0.00    +0.000 C 
ATOM     11  C   UNL     1      -8.443   7.504  29.488  0.00  0.00    +0.000 C 
BRANCH   9  12
ATOM     12  C   UNL     1      -8.233  10.004  29.406  0.00  0.00    +0.000 C 
ATOM     13  C   UNL     1      -7.141   9.657  28.363  0.00  0.00    +0.000 C 
ATOM     14  C   UNL     1      -7.209   9.984  30.770  0.00  0.00    +0.000 C 
BRANCH  12  15
ATOM     15  C   UNL     1      -8.642  11.443  29.415  0.00  0.00    +0.000 C 
ATOM     16  C   UNL     1      -7.611  11.966  28.425  0.00  0.00    +0.000 C 
ATOM     17  C   UNL     1      -8.430  12.199  30.665  0.00  0.00    +0.000 C 
ATOM     18  C   UNL     1     -10.032  11.654  28.984  0.00  0.00    +0.000 C 
ENDBRANCH  12  15
ENDBRANCH   9  12
ENDBRANCH   5   9
BRANCH   7  19
ATOM     19  C   UNL     1      -9.548   6.259  24.827  0.00  0.00    +0.000 C 
BRANCH  19  20
ATOM     20  C   UNL     1     -10.307   4.884  24.787  0.00  0.00    +0.000 C 
ATOM     21  C   UNL     1     -11.366   4.742  25.952  0.00  0.00    +0.000 C 
BRANCH  20  22
ATOM     22  O   UNL     1     -11.136   4.832  23.568  0.00  0.00    +0.000 OA
BRANCH  22  23
ATOM     23  C   UNL     1     -11.189   3.585  22.931  0.00  0.00    +0.000 C 
BRANCH  23  24
ATOM     24  C   UNL     1     -10.429   3.630  21.614  0.00  0.00    +0.000 C 
BRANCH  24  25
ATOM     25  O   UNL     1     -11.229   4.234  20.650  0.00  0.00    +0.000 OA
BRANCH  25  26
ATOM     26  C   UNL     1     -11.156   3.592  19.386  0.00  0.00    +0.000 C 
BRANCH  26  27
ATOM     27  C   UNL     1     -12.453   3.636  18.700  0.00  0.00    +0.000 C 
BRANCH  27  28
ATOM     28  O   UNL     1     -13.274   4.546  19.333  0.00  0.00    +0.000 OA
BRANCH  28  29
ATOM     29  C   UNL     1     -14.629   4.493  18.936  0.00  0.00    +0.000 C 
BRANCH  29  30
ATOM     30  C   UNL     1     -14.845   5.453  17.791  0.00  0.00    +0.000 C 
BRANCH  30  31
ATOM     31  O   UNL     1     -14.905   4.709  16.613  0.00  0.00    +0.000 OA
BRANCH  31  32
ATOM     32  C   UNL     1     -14.253   5.398  15.530  0.00  0.00    +0.000 C 
BRANCH  32  33
ATOM     33  C   UNL     1     -12.957   4.638  15.205  0.00  0.00    +0.000 C 
BRANCH  33  34
ATOM     34  O   UNL     1     -13.225   3.274  15.256  0.00  0.00    +0.000 OA
BRANCH  34  35
ATOM     35  C   UNL     1     -13.535   2.685  13.977  0.00  0.00    +0.000 C 
BRANCH  35  36
ATOM     36  C   UNL     1     -12.682   1.488  13.685  0.00  0.00    +0.000 C 
BRANCH  36  37
ATOM     37  O   UNL     1     -11.528   1.568  14.572  0.00  0.00    +0.000 OA
BRANCH  37  38
ATOM     38  C   UNL     1     -10.450   2.196  13.925  0.00  0.00    +0.000 C 
BRANCH  38  39
ATOM     39  C   UNL     1      -9.592   2.988  14.829  0.00  0.00    +0.000 C 
BRANCH  39  40
ATOM     40  O   UNL     1      -8.594   3.727  13.980  0.00  0.00    +0.000 OA
BRANCH  40  41
ATOM     41  C   UNL     1      -9.087   3.992  12.687  0.00  0.00    +0.000 C 
BRANCH  41  42
ATOM     42  C   UNL     1      -9.374   5.440  12.498  0.00  0.00    +0.000 C 
BRANCH  42  43
ATOM     43  O   UNL     1      -8.798   5.911  11.345  0.00  0.00    +0.000 OA
BRANCH  43  44
ATOM     44  C   UNL     1      -8.806   5.044  10.248  0.00  0.00    +0.000 C 
BRANCH  44  45
ATOM     45  C   UNL     1      -9.834   5.422   9.242  0.00  0.00    +0.000 C 
BRANCH  45  46
ATOM     46  O   UNL     1      -9.442   4.852   7.990  0.00  0.00    +0.000 OA
BRANCH  46  47
ATOM     47  C   UNL     1     -10.222   3.695   7.735  0.00  0.00    +0.000 C 
BRANCH  47  48
ATOM     48  C   UNL     1     -11.705   4.163   7.423  0.00  0.00    +0.000 C 
BRANCH  48  49
ATOM     49  O   UNL     1     -12.516   3.050   7.278  0.00  0.00    +0.000 OA
BRANCH  49  50
ATOM     50  C   UNL     1     -13.577   2.954   8.167  0.00  0.00    +0.000 C 
BRANCH  50  52
ATOM     51  O   UNL     1     -14.558   3.248   6.013  0.00  0.00    +0.000 OA
ATOM     52  C   UNL     1     -14.907   3.136   7.407  0.00  0.00    +0.000 C 
ENDBRANCH  50  52
ENDBRANCH  49  50
ENDBRANCH  48  49
ENDBRANCH  47  48
ENDBRANCH  46  47
ENDBRANCH  45  46
ENDBRANCH  44  45
ENDBRANCH  43  44
ENDBRANCH  42  43
ENDBRANCH  41  42
ENDBRANCH  40  41
ENDBRANCH  39  40
ENDBRANCH  38  39
ENDBRANCH  37  38
ENDBRANCH  36  37
ENDBRANCH  35  36
ENDBRANCH  34  35
ENDBRANCH  33  34
ENDBRANCH  32  33
ENDBRANCH  31  32
ENDBRANCH  30  31
ENDBRANCH  29  30
ENDBRANCH  28  29
ENDBRANCH  27  28
ENDBRANCH  26  27
ENDBRANCH  25  26
ENDBRANCH  24  25
ENDBRANCH  23  24
ENDBRANCH  22  23
ENDBRANCH  20  22
ENDBRANCH  19  20
BRANCH  19  53
ATOM     53  C   UNL     1      -9.302   6.635  23.274  0.00  0.00    +0.000 C 
BRANCH  53  55
ATOM     54  C   UNL     1      -8.547   6.444  21.033  0.00  0.00    +0.000 C 
ATOM     55  C   UNL     1      -8.227   6.515  22.483  0.00  0.00    +0.000 C 
BRANCH  55  56
ATOM     56  C   UNL     1      -6.779   6.446  22.962  0.00  0.00    +0.000 C 
ATOM     57  C   UNL     1      -6.142   7.592  22.252  0.00  0.00    +0.000 C 
ATOM     58  C   UNL     1      -6.733   6.743  24.434  0.00  0.00    +0.000 C 
BRANCH  56  59
ATOM     59  C   UNL     1      -6.126   5.071  22.625  0.00  0.00    +0.000 C 
ATOM     60  C   UNL     1      -6.113   4.793  21.173  0.00  0.00    +0.000 C 
ATOM     61  C   UNL     1      -6.951   3.981  23.350  0.00  0.00    +0.000 C 
BRANCH  59  62
ATOM     62  C   UNL     1      -4.629   4.913  23.157  0.00  0.00    +0.000 C 
ATOM     63  C   UNL     1      -3.749   5.971  22.592  0.00  0.00    +0.000 C 
ATOM     64  C   UNL     1      -4.056   3.603  22.671  0.00  0.00    +0.000 C 
ATOM     65  C   UNL     1      -4.514   4.865  24.603  0.00  0.00    +0.000 C 
ENDBRANCH  59  62
ENDBRANCH  56  59
ENDBRANCH  55  56
ENDBRANCH  53  55
ENDBRANCH  19  53
ENDBRANCH   7  19
BRANCH   8  66
ATOM     66  O   UNL     1     -12.706   7.828  24.446  0.00  0.00    +0.000 OA
BRANCH  66  67
ATOM     67  C   UNL     1     -12.352   8.670  23.374  0.00  0.00    +0.000 C 
BRANCH  67  68
ATOM     68  C   UNL     1     -12.970   8.352  21.995  0.00  0.00    +0.000 C 
BRANCH  68  69
ATOM     69  O   UNL     1     -14.124   7.581  22.183  0.00  0.00    +0.000 OA
BRANCH  69  70
ATOM     70  C   UNL     1     -15.206   7.948  21.267  0.00  0.00    +0.000 C 
BRANCH  70  71
ATOM     71  C   UNL     1     -14.687   8.815  20.133  0.00  0.00    +0.000 C 
BRANCH  71  72
ATOM     72  O   UNL     1     -15.876   9.542  19.477  0.00  0.00    +0.000 OA
BRANCH  72  73
ATOM     73  C   UNL     1     -16.858   8.614  19.036  0.00  0.00    +0.000 C 
BRANCH  73  74
ATOM     74  C   UNL     1     -18.248   9.163  19.380  0.00  0.00    +0.000 C 
BRANCH  74  75
ATOM     75  O   UNL     1     -19.245   8.463  18.705  0.00  0.00    +0.000 OA
BRANCH  75  76
ATOM     76  C   UNL     1     -20.144   9.314  17.982  0.00  0.00    +0.000 C 
BRANCH  76  77
ATOM     77  C   UNL     1     -21.576   9.088  18.386  0.00  0.00    +0.000 C 
BRANCH  77  78
ATOM     78  O   UNL     1     -22.275   8.902  17.163  0.00  0.00    +0.000 OA
BRANCH  78  79
ATOM     79  C   UNL     1     -23.627   9.470  17.170  0.00  0.00    +0.000 C 
BRANCH  79  80
ATOM     80  C   UNL     1     -24.446   8.604  18.050  0.00  0.00    +0.000 C 
BRANCH  80  81
ATOM     81  O   UNL     1     -25.484   7.896  17.322  0.00  0.00    +0.000 OA
BRANCH  81  82
ATOM     82  C   UNL     1     -25.509   8.179  15.960  0.00  0.00    +0.000 C 
BRANCH  82  83
ATOM     83  C   UNL     1     -26.898   7.864  15.369  0.00  0.00    +0.000 C 
BRANCH  83  84
ATOM     84  O   UNL     1     -27.147   8.671  14.243  0.00  0.00    +0.000 OA
BRANCH  84  85
ATOM     85  C   UNL     1     -26.626   9.904  14.230  0.00  0.00    +0.000 C 
BRANCH  85  86
ATOM     86  C   UNL     1     -26.697  10.510  12.813  0.00  0.00    +0.000 C 
BRANCH  86  87
ATOM     87  O   UNL     1     -25.972  11.706  12.688  0.00  0.00    +0.000 OA
BRANCH  87  88
ATOM     88  C   UNL     1     -25.255  11.817  11.509  0.00  0.00    +0.000 C 
BRANCH  88  89
ATOM     89  C   UNL     1     -24.173  12.879  11.618  0.00  0.00    +0.000 C 
BRANCH  89  90
ATOM     90  O   UNL     1     -24.547  13.836  12.603  0.00  0.00    +0.000 OA
BRANCH  90  91
ATOM     91  C   UNL     1     -23.528  14.856  12.671  0.00  0.00    +0.000 C 
BRANCH  91  92
ATOM     92  C   UNL     1     -22.653  14.709  11.452  0.00  0.00    +0.000 C 
BRANCH  92  93
ATOM     93  O   UNL     1     -22.344  16.010  10.960  0.00  0.00    +0.000 OA
BRANCH  93  94
ATOM     94  C   UNL     1     -23.134  16.399   9.903  0.00  0.00    +0.000 C 
BRANCH  94  96
ATOM     95  O   UNL     1     -21.464  16.737   8.208  0.00  0.00    +0.000 OA
ATOM     96  C   UNL     1     -22.395  17.407   9.017  0.00  0.00    +0.000 C 
ENDBRANCH  94  96
ENDBRANCH  93  94
ENDBRANCH  92  93
ENDBRANCH  91  92
ENDBRANCH  90  91
ENDBRANCH  89  90
ENDBRANCH  88  89
ENDBRANCH  87  88
ENDBRANCH  86  87
ENDBRANCH  85  86
ENDBRANCH  84  85
ENDBRANCH  83  84
ENDBRANCH  82  83
ENDBRANCH  81  82
ENDBRANCH  80  81
ENDBRANCH  79  80
ENDBRANCH  78  79
ENDBRANCH  77  78
ENDBRANCH  76  77
ENDBRANCH  75  76
ENDBRANCH  74  75
ENDBRANCH  73  74
ENDBRANCH  72  73
ENDBRANCH  71  72
ENDBRANCH  70  71
ENDBRANCH  69  70
ENDBRANCH  68  69
ENDBRANCH  67  68
ENDBRANCH  66  67
ENDBRANCH   8  66
ENDBRANCH   2   3
ENDBRANCH   1   2
BRANCH   1  97
ATOM     97  C   UNL     1     -14.045  12.298  24.829  0.00  0.00    +0.000 C 
BRANCH  97  98
ATOM     98  C   UNL     1     -15.562  12.839  24.680  0.00  0.00    +0.000 C 
ATOM     99  C   UNL     1     -16.120  13.411  26.017  0.00  0.00    +0.000 C 
ATOM    100  C   UNL     1     -17.611  13.970  25.988  0.00  0.00    +0.000 C 
ATOM    101  C   UNL     1     -18.826  14.558  26.560  0.00  0.00    +0.000 C 
ATOM    102  C   UNL     1     -20.250  14.197  26.207  0.00  0.00    +0.000 C 
ATOM    103  C   UNL     1     -21.377  14.809  26.878  0.00  0.00    +0.000 C 
ATOM    104  C   UNL     1     -21.066  15.725  27.943  0.00  0.00    +0.000 C 
ATOM    105  C   UNL     1     -19.781  16.154  28.252  0.00  0.00    +0.000 C 
ATOM    106  C   UNL     1     -18.801  15.558  27.518  0.00  0.00    +0.000 C 
ATOM    107  C   UNL     1     -18.007  13.618  25.336  0.00  0.00    +0.000 C 
ATOM    108  C   UNL     1     -17.778  13.257  24.054  0.00  0.00    +0.000 C 
ATOM    109  C   UNL     1     -16.341  13.148  23.525  0.00  0.00    +0.000 C 
BRANCH 103 110
ATOM    110  C   UNL     1     -22.792  14.486  26.407  0.00  0.00    +0.000 C 
ATOM    111  C   UNL     1     -23.677  15.541  27.131  0.00  0.00    +0.000 C 
ATOM    112  C   UNL     1     -22.915  14.799  24.988  0.00  0.00    +0.000 C 
BRANCH 110 113
ATOM    113  C   UNL     1     -23.423  13.096  26.654  0.00  0.00    +0.000 C 
ATOM    114  C   UNL     1     -24.901  13.312  26.727  0.00  0.00    +0.000 C 
ATOM    115  C   UNL     1     -23.066  12.172  25.487  0.00  0.00    +0.000 C 
BRANCH 113 116
ATOM    116  C   UNL     1     -22.905  12.343  27.960  0.00  0.00    +0.000 C 
ATOM    117  C   UNL     1     -23.713  11.088  28.222  0.00  0.00    +0.000 C 
ATOM    118  C   UNL     1     -23.132  13.178  29.170  0.00  0.00    +0.000 C 
ATOM    119  C   UNL     1     -21.437  12.036  27.859  0.00  0.00    +0.000 C 
ENDBRANCH 113 116
ENDBRANCH 110 113
ENDBRANCH 103 110
BRANCH 108 120
ATOM    120  C   UNL     1     -18.889  12.404  23.337  0.00  0.00    +0.000 C 
ATOM    121  C   UNL     1     -19.777  11.818  24.448  0.00  0.00    +0.000 C 
ATOM    122  C   UNL     1     -18.208  11.235  22.723  0.00  0.00    +0.000 C 
BRANCH 120 123
ATOM    123  C   UNL     1     -19.948  13.187  22.379  0.00  0.00    +0.000 C 
ATOM    124  C   UNL     1     -20.880  14.045  23.113  0.00  0.00    +0.000 C 
ATOM    125  C   UNL     1     -19.225  14.109  21.429  0.00  0.00    +0.000 C 
BRANCH 123 126
ATOM    126  C   UNL     1     -20.892  12.247  21.551  0.00  0.00    +0.000 C 
ATOM    127  C   UNL     1     -20.474  12.309  20.123  0.00  0.00    +0.000 C 
ATOM    128  C   UNL     1     -22.311  12.748  21.579  0.00  0.00    +0.000 C 
ATOM    129  C   UNL     1     -20.908  10.881  22.125  0.00  0.00    +0.000 C 
ENDBRANCH 123 126
ENDBRANCH 120 123
ENDBRANCH 108 120
BRANCH 106 130
ATOM    130  O   UNL     1     -17.528  16.073  27.602  0.00  0.00    +0.000 OA
BRANCH 130 131
ATOM    131  C   UNL     1     -17.101  16.721  28.824  0.00  0.00    +0.000 C 
BRANCH 131 132
ATOM    132  C   UNL     1     -16.264  17.923  28.425  0.00  0.00    +0.000 C 
BRANCH 132 133
ATOM    133  O   UNL     1     -16.806  18.531  27.305  0.00  0.00    +0.000 OA
BRANCH 133 134
ATOM    134  C   UNL     1     -17.730  19.561  27.619  0.00  0.00    +0.000 C 
BRANCH 134 135
ATOM    135  C   UNL     1     -18.910  19.469  26.716  0.00  0.00    +0.000 C 
BRANCH 135 136
ATOM    136  O   UNL     1     -18.562  18.810  25.844  0.00  0.00    +0.000 OA
BRANCH 136 137
ATOM    137  C   UNL     1     -19.611  18.254  25.132  0.00  0.00    +0.000 C 
BRANCH 137 138
ATOM    138  C   UNL     1     -19.150  17.197  24.071  0.00  0.00    +0.000 C 
BRANCH 138 139
ATOM    139  O   UNL     1     -17.819  17.015  24.233  0.00  0.00    +0.000 OA
BRANCH 139 140
ATOM    140  C   UNL     1     -17.130  16.801  22.982  0.00  0.00    +0.000 C 
BRANCH 140 141
ATOM    141  C   UNL     1     -17.306  18.007  22.112  0.00  0.00    +0.000 C 
BRANCH 141 142
ATOM    142  O   UNL     1     -16.545  17.861  20.934  0.00  0.00    +0.000 OA
BRANCH 142 143
ATOM    143  C   UNL     1     -16.903  16.712  20.170  0.00  0.00    +0.000 C 
BRANCH 143 144
ATOM    144  C   UNL     1     -15.817  16.439  19.095  0.00  0.00    +0.000 C 
BRANCH 144 145
ATOM    145  O   UNL     1     -15.316  17.660  18.526  0.00  0.00    +0.000 OA
BRANCH 145 146
ATOM    146  C   UNL     1     -15.490  17.888  17.120  0.00  0.00    +0.000 C 
BRANCH 146 147
ATOM    147  C   UNL     1     -14.546  18.937  16.587  0.00  0.00    +0.000 C 
BRANCH 147 148
ATOM    148  O   UNL     1     -15.097  19.442  15.357  0.00  0.00    +0.000 OA
BRANCH 148 149
ATOM    149  C   UNL     1     -16.422  19.024  15.070  0.00  0.00    +0.000 C 
BRANCH 149 150
ATOM    150  C   UNL     1     -16.584  18.829  13.577  0.00  0.00    +0.000 C 
BRANCH 150 151
ATOM    151  O   UNL     1     -15.503  18.011  13.108  0.00  0.00    +0.000 OA
BRANCH 151 152
ATOM    152  C   UNL     1     -14.753  18.523  12.063  0.00  0.00    +0.000 C 
BRANCH 152 153
ATOM    153  C   UNL     1     -13.347  17.952  12.052  0.00  0.00    +0.000 C 
BRANCH 153 154
ATOM    154  O   UNL     1     -12.803  18.013  13.370  0.00  0.00    +0.000 OA
BRANCH 154 155
ATOM    155  C   UNL     1     -12.313  16.793  13.846  0.00  0.00    +0.000 C 
BRANCH 155 156
ATOM    156  C   UNL     1     -10.889  16.979  14.429  0.00  0.00    +0.000 C 
BRANCH 156 157
ATOM    157  O   UNL     1      -9.980  17.012  13.324  0.00  0.00    +0.000 OA
BRANCH 157 158
ATOM    158  C   UNL     1      -9.177  18.163  13.312  0.00  0.00    +0.000 C 
BRANCH 158 160
ATOM    159  O   UNL     1      -6.881  18.727  14.041  0.00  0.00    +0.000 OA
ATOM    160  C   UNL     1      -7.802  17.667  13.425  0.00  0.00    +0.000 C 
ENDBRANCH 158 160
ENDBRANCH 157 158
ENDBRANCH 156 157
ENDBRANCH 155 156
ENDBRANCH 154 155
ENDBRANCH 153 154
ENDBRANCH 152 153
ENDBRANCH 151 152
ENDBRANCH 150 151
ENDBRANCH 149 150
ENDBRANCH 148 149
ENDBRANCH 147 148
ENDBRANCH 146 147
ENDBRANCH 145 146
ENDBRANCH 144 145
ENDBRANCH 143 144
ENDBRANCH 142 143
ENDBRANCH 141 142
ENDBRANCH 140 141
ENDBRANCH 139 140
ENDBRANCH 138 139
ENDBRANCH 137 138
ENDBRANCH 136 137
ENDBRANCH 135 136
ENDBRANCH 134 135
ENDBRANCH 133 134
ENDBRANCH 132 133
ENDBRANCH 131 132
ENDBRANCH 130 131
ENDBRANCH 106 130
BRANCH  99 161
ATOM    161  O   UNL     1     -15.796  12.810  27.208  0.00  0.00    +0.000 OA
BRANCH 161 162
ATOM    162  C   UNL     1     -16.791  12.062  27.916  0.00  0.00    +0.000 C 
BRANCH 162 163
ATOM    163  C   UNL     1     -17.050  12.501  29.349  0.00  0.00    +0.000 C 
BRANCH 163 164
ATOM    164  O   UNL     1     -18.255  11.971  29.811  0.00  0.00    +0.000 OA
BRANCH 164 165
ATOM    165  C   UNL     1     -18.377  10.577  29.709  0.00  0.00    +0.000 C 
BRANCH 165 166
ATOM    166  C   UNL     1     -17.479   9.823  30.693  0.00  0.00    +0.000 C 
BRANCH 166 167
ATOM    167  O   UNL     1     -16.766   8.782  29.979  0.00  0.00    +0.000 OA
BRANCH 167 168
ATOM    168  C   UNL     1     -15.389   9.080  29.896  0.00  0.00    +0.000 C 
BRANCH 168 169
ATOM    169  C   UNL     1     -14.949   9.939  31.073  0.00  0.00    +0.000 C 
BRANCH 169 170
ATOM    170  O   UNL     1     -13.584   9.777  31.304  0.00  0.00    +0.000 OA
BRANCH 170 171
ATOM    171  C   UNL     1     -13.127  10.425  32.476  0.00  0.00    +0.000 C 
BRANCH 171 172
ATOM    172  C   UNL     1     -12.446   9.419  33.458  0.00  0.00    +0.000 C 
BRANCH 172 173
ATOM    173  O   UNL     1     -13.476   8.646  34.051  0.00  0.00    +0.000 OA
BRANCH 173 174
ATOM    174  C   UNL     1     -13.260   7.228  33.775  0.00  0.00    +0.000 C 
BRANCH 174 175
ATOM    175  C   UNL     1     -14.422   6.689  32.943  0.00  0.00    +0.000 C 
BRANCH 175 176
ATOM    176  O   UNL     1     -15.530   6.572  33.776  0.00  0.00    +0.000 OA
BRANCH 176 177
ATOM    177  C   UNL     1     -16.713   7.073  33.175  0.00  0.00    +0.000 C 
BRANCH 177 178
ATOM    178  C   UNL     1     -17.872   6.266  33.745  0.00  0.00    +0.000 C 
BRANCH 178 179
ATOM    179  O   UNL     1     -18.460   5.488  32.717  0.00  0.00    +0.000 OA
BRANCH 179 180
ATOM    180  C   UNL     1     -17.997   5.859  31.392  0.00  0.00    +0.000 C 
BRANCH 180 181
ATOM    181  C   UNL     1     -19.189   6.256  30.520  0.00  0.00    +0.000 C 
BRANCH 181 182
ATOM    182  O   UNL     1     -20.368   6.266  31.277  0.00  0.00    +0.000 OA
BRANCH 182 183
ATOM    183  C   UNL     1     -21.414   5.409  30.700  0.00  0.00    +0.000 C 
BRANCH 183 184
ATOM    184  C   UNL     1     -21.817   5.801  29.278  0.00  0.00    +0.000 C 
BRANCH 184 185
ATOM    185  O   UNL     1     -23.128   5.371  29.105  0.00  0.00    +0.000 OA
BRANCH 185 186
ATOM    186  C   UNL     1     -23.989   5.765  30.188  0.00  0.00    +0.000 C 
BRANCH 186 187
ATOM    187  C   UNL     1     -25.116   4.772  30.360  0.00  0.00    +0.000 C 
BRANCH 187 188
ATOM    188  O   UNL     1     -24.526   3.439  30.059  0.00  0.00    +0.000 OA
BRANCH 188 189
ATOM    189  C   UNL     1     -25.569   2.508  29.699  0.00  0.00    +0.000 C 
BRANCH 189 191
ATOM    190  O   UNL     1     -23.742   1.025  29.440  0.00  0.00    +0.000 OA
ATOM    191  C   UNL     1     -24.930   1.434  28.849  0.00  0.00    +0.000 C 
ENDBRANCH 189 191
ENDBRANCH 188 189
ENDBRANCH 187 188
ENDBRANCH 186 187
ENDBRANCH 185 186
ENDBRANCH 184 185
ENDBRANCH 183 184
ENDBRANCH 182 183
ENDBRANCH 181 182
ENDBRANCH 180 181
ENDBRANCH 179 180
ENDBRANCH 178 179
ENDBRANCH 177 178
ENDBRANCH 176 177
ENDBRANCH 175 176
ENDBRANCH 174 175
ENDBRANCH 173 174
ENDBRANCH 172 173
ENDBRANCH 171 172
ENDBRANCH 170 171
ENDBRANCH 169 170
ENDBRANCH 168 169
ENDBRANCH 167 168
ENDBRANCH 166 167
ENDBRANCH 165 166
ENDBRANCH 164 165
ENDBRANCH 163 164
ENDBRANCH 162 163
ENDBRANCH 161 162
ENDBRANCH  99 161
ENDBRANCH  97  98
BRANCH  97 192
ATOM    192  C   UNL     1     -12.868  12.750  25.501  0.00  0.00    +0.000 C 
BRANCH 192 193
ATOM    193  C   UNL     1     -12.394  14.108  25.600  0.00  0.00    +0.000 C 
ATOM    194  C   UNL     1     -11.931  14.845  24.434  0.00  0.00    +0.000 C 
BRANCH 193 195
ATOM    195  C   UNL     1     -12.330  14.820  26.890  0.00  0.00    +0.000 C 
ATOM    196  C   UNL     1     -13.422  15.901  26.852  0.00  0.00    +0.000 C 
ATOM    197  C   UNL     1     -12.675  13.891  28.062  0.00  0.00    +0.000 C 
BRANCH 195 198
ATOM    198  C   UNL     1     -10.868  15.475  27.100  0.00  0.00    +0.000 C 
ATOM    199  C   UNL     1     -10.708  16.710  26.327  0.00  0.00    +0.000 C 
ATOM    200  C   UNL     1      -9.800  14.502  26.719  0.00  0.00    +0.000 C 
BRANCH 198 201
ATOM    201  C   UNL     1     -10.435  15.885  28.558  0.00  0.00    +0.000 C 
ATOM    202  C   UNL     1     -11.174  15.137  29.625  0.00  0.00    +0.000 C 
ATOM    203  C   UNL     1     -10.693  17.339  28.848  0.00  0.00    +0.000 C 
ATOM    204  C   UNL     1      -9.039  15.542  28.779  0.00  0.00    +0.000 C 
ENDBRANCH 198 201
ENDBRANCH 195 198
ENDBRANCH 193 195
ENDBRANCH 192 193
ENDBRANCH  97 192
ENDBRANCH   1  97
BRANCH   1 205
ATOM    205  O   UNL     1     -15.283  10.363  25.607  0.00  0.00    +0.000 OA
BRANCH 205 206
ATOM    206  C   UNL     1     -15.767   9.525  24.583  0.00  0.00    +0.000 C 
BRANCH 206 207
ATOM    207  C   UNL     1     -17.011   8.795  25.002  0.00  0.00    +0.000 C 
BRANCH 207 208
ATOM    208  O   UNL     1     -16.915   8.340  26.357  0.00  0.00    +0.000 OA
BRANCH 208 209
ATOM    209  C   UNL     1     -18.192   7.992  26.935  0.00  0.00    +0.000 C 
BRANCH 209 210
ATOM    210  C   UNL     1     -19.283   8.874  26.383  0.00  0.00    +0.000 C 
BRANCH 210 211
ATOM    211  C   UNL     1     -20.651   8.604  27.010  0.00  0.00    +0.000 C 
BRANCH 211 212
ATOM    212  C   UNL     1     -21.759   8.729  25.989  0.00  0.00    +0.000 C 
BRANCH 212 213
ATOM    213  C   UNL     1     -22.844   7.737  26.251  0.00  0.00    +0.000 C 
BRANCH 213 214
ATOM    214  O   UNL     1     -24.072   8.267  26.056  0.00  0.00    +0.000 OA
BRANCH 214 215
ATOM    215  C   UNL     1     -25.070   7.249  25.765  0.00  0.00    +0.000 C 
BRANCH 215 216
ATOM    216  C   UNL     1     -24.949   6.705  24.357  0.00  0.00    +0.000 C 
BRANCH 216 217
ATOM    217  O   UNL     1     -25.251   5.382  24.337  0.00  0.00    +0.000 OA
BRANCH 217 218
ATOM    218  C   UNL     1     -26.326   4.563  24.970  0.00  0.00    +0.000 C 
BRANCH 218 219
ATOM    219  C   UNL     1     -25.747   3.111  25.048  0.00  0.00    +0.000 C 
BRANCH 219 220
ATOM    220  O   UNL     1     -24.926   2.856  23.970  0.00  0.00    +0.000 OA
BRANCH 220 221
ATOM    221  C   UNL     1     -25.552   2.273  22.813  0.00  0.00    +0.000 C 
BRANCH 221 222
ATOM    222  C   UNL     1     -24.891   2.832  21.555  0.00  0.00    +0.000 C 
BRANCH 222 223
ATOM    223  O   UNL     1     -24.928   1.908  20.498  0.00  0.00    +0.000 OA
BRANCH 223 224
ATOM    224  C   UNL     1     -25.265   2.472  19.243  0.00  0.00    +0.000 C 
BRANCH 224 225
ATOM    225  C   UNL     1     -23.998   3.122  18.678  0.00  0.00    +0.000 C 
BRANCH 225 226
ATOM    226  O   UNL     1     -23.462   2.346  17.610  0.00  0.00    +0.000 OA
BRANCH 226 227
ATOM    227  C   UNL     1     -22.983   3.132  16.535  0.00  0.00    +0.000 C 
BRANCH 227 228
ATOM    228  C   UNL     1     -22.071   2.280  15.689  0.00  0.00    +0.000 C 
BRANCH 228 229
ATOM    229  O   UNL     1     -22.714   1.774  14.551  0.00  0.00    +0.000 OA
BRANCH 229 230
ATOM    230  C   UNL     1     -23.581   2.705  13.959  0.00  0.00    +0.000 C 
BRANCH 230 231
ATOM    231  C   UNL     1     -23.762   2.404  12.502  0.00  0.00    +0.000 C 
BRANCH 231 232
ATOM    232  O   UNL     1     -23.229   1.133  12.226  0.00  0.00    +0.000 OA
BRANCH 232 233
ATOM    233  C   UNL     1     -23.920   0.447  11.207  0.00  0.00    +0.000 C 
BRANCH 233 234
ATOM    234  C   UNL     1     -24.364  -0.914  11.699  0.00  0.00    +0.000 C 
ATOM    235  O   UNL     1     -24.141  -0.995  13.089  0.00  0.00    +0.000 OA
ENDBRANCH 233 234
ENDBRANCH 232 233
ENDBRANCH 231 232
ENDBRANCH 230 231
ENDBRANCH 229 230
ENDBRANCH 228 229
ENDBRANCH 227 228
ENDBRANCH 226 227
ENDBRANCH 225 226
ENDBRANCH 224 225
ENDBRANCH 223 224
ENDBRANCH 222 223
ENDBRANCH 221 222
ENDBRANCH 220 221
ENDBRANCH 219 220
ENDBRANCH 218 219
ENDBRANCH 217 218
ENDBRANCH 216 217
ENDBRANCH 215 216
ENDBRANCH 214 215
ENDBRANCH 213 214
ENDBRANCH 212 213
ENDBRANCH 211 212
ENDBRANCH 210 211
ENDBRANCH 209 210
ENDBRANCH 208 209
ENDBRANCH 207 208
ENDBRANCH 206 207
ENDBRANCH 205 206
ENDBRANCH   1 205
TORSDOF 175
ENDMDL
MODEL 9
REMARK VINA RESULT:      -4.5      2.151      4.323
REMARK  Name = human_CD1d_Tyloxapol_pred.rank_0
REMARK  175 active torsions:
REMARK  status: ('A' for Active; 'I' for Inactive)
REMARK    1  A    between atoms: C_1  and  C_3
REMARK    2  A    between atoms: C_3  and  O_4
REMARK    3  A    between atoms: O_4  and  C_5
REMARK    4  A    between atoms: C_5  and  C_7
REMARK    5  A    between atoms: O_6  and  C_7
REMARK    6  A    between atoms: O_6  and  C_9
REMARK    7  A    between atoms: O_8  and  C_11
REMARK    8  A    between atoms: O_8  and  C_13
REMARK    9  A    between atoms: C_9  and  C_11
REMARK   10  A    between atoms: O_10  and  C_15
REMARK   11  A    between atoms: O_10  and  C_17
REMARK   12  A    between atoms: O_12  and  C_19
REMARK   13  A    between atoms: O_12  and  C_21
REMARK   14  A    between atoms: C_13  and  C_15
REMARK   15  A    between atoms: O_14  and  C_23
REMARK   16  A    between atoms: O_14  and  C_25
REMARK   17  A    between atoms: O_16  and  C_27
REMARK   18  A    between atoms: O_16  and  C_29
REMARK   19  A    between atoms: C_17  and  C_19
REMARK   20  A    between atoms: O_18  and  C_37
REMARK   21  A    between atoms: O_18  and  C_39
REMARK   22  A    between atoms: O_20  and  C_41
REMARK   23  A    between atoms: O_20  and  C_43
REMARK   24  A    between atoms: C_21  and  C_23
REMARK   25  A    between atoms: O_22  and  C_49
REMARK   26  A    between atoms: O_22  and  C_51
REMARK   27  A    between atoms: O_24  and  C_53
REMARK   28  A    between atoms: O_24  and  C_55
REMARK   29  A    between atoms: C_25  and  C_27
REMARK   30  A    between atoms: O_26  and  C_57
REMARK   31  A    between atoms: O_26  and  C_59
REMARK   32  A    between atoms: O_28  and  C_61
REMARK   33  A    between atoms: O_28  and  C_63
REMARK   34  A    between atoms: C_29  and  C_31
REMARK   35  A    between atoms: O_30  and  C_65
REMARK   36  A    between atoms: O_30  and  C_67
REMARK   37  A    between atoms: C_31  and  C_33
REMARK   38  A    between atoms: O_32  and  C_69
REMARK   39  A    between atoms: O_32  and  C_71
REMARK   40  A    between atoms: C_33  and  C_35
REMARK   41  A    between atoms: O_34  and  C_73
REMARK   42  A    between atoms: O_34  and  C_75
REMARK   43  A    between atoms: C_35  and  C_37
REMARK   44  A    between atoms: O_36  and  C_77
REMARK   45  A    between atoms: O_36  and  C_79
REMARK   46  A    between atoms: O_38  and  C_81
REMARK   47  A    between atoms: O_38  and  C_83
REMARK   48  A    between atoms: C_39  and  C_41
REMARK   49  A    between atoms: O_40  and  C_85
REMARK   50  A    between atoms: O_40  and  C_87
REMARK   51  A    between atoms: C_43  and  C_45
REMARK   52  A    between atoms: C_43  and  C_163
REMARK   53  A    between atoms: O_44  and  C_116
REMARK   54  A    between atoms: O_44  and  C_117
REMARK   55  A    between atoms: C_45  and  C_47
REMARK   56  A    between atoms: C_45  and  C_150
REMARK   57  A    between atoms: O_46  and  C_118
REMARK   58  A    between atoms: O_46  and  C_119
REMARK   59  A    between atoms: O_48  and  C_120
REMARK   60  A    between atoms: O_48  and  C_121
REMARK   61  A    between atoms: O_50  and  C_122
REMARK   62  A    between atoms: O_50  and  C_123
REMARK   63  A    between atoms: C_51  and  C_53
REMARK   64  A    between atoms: O_52  and  C_124
REMARK   65  A    between atoms: O_52  and  C_125
REMARK   66  A    between atoms: O_54  and  C_126
REMARK   67  A    between atoms: O_54  and  C_127
REMARK   68  A    between atoms: C_55  and  C_57
REMARK   69  A    between atoms: O_56  and  C_128
REMARK   70  A    between atoms: O_56  and  C_129
REMARK   71  A    between atoms: O_58  and  C_130
REMARK   72  A    between atoms: O_58  and  C_131
REMARK   73  A    between atoms: C_59  and  C_61
REMARK   74  A    between atoms: O_60  and  C_132
REMARK   75  A    between atoms: O_60  and  C_133
REMARK   76  A    between atoms: O_62  and  C_134
REMARK   77  A    between atoms: O_62  and  C_135
REMARK   78  A    between atoms: C_63  and  C_65
REMARK   79  A    between atoms: O_66  and  C_180
REMARK   80  A    between atoms: O_66  and  C_181
REMARK   81  A    between atoms: C_67  and  C_69
REMARK   82  A    between atoms: O_68  and  C_182
REMARK   83  A    between atoms: O_68  and  C_183
REMARK   84  A    between atoms: O_70  and  C_184
REMARK   85  A    between atoms: O_70  and  C_185
REMARK   86  A    between atoms: C_71  and  C_73
REMARK   87  A    between atoms: O_72  and  C_186
REMARK   88  A    between atoms: O_72  and  C_187
REMARK   89  A    between atoms: O_74  and  C_188
REMARK   90  A    between atoms: O_74  and  C_189
REMARK   91  A    between atoms: C_75  and  C_77
REMARK   92  A    between atoms: O_76  and  C_190
REMARK   93  A    between atoms: O_76  and  C_191
REMARK   94  A    between atoms: O_78  and  C_192
REMARK   95  A    between atoms: O_78  and  C_193
REMARK   96  A    between atoms: C_79  and  C_81
REMARK   97  A    between atoms: O_80  and  C_194
REMARK   98  A    between atoms: O_80  and  C_195
REMARK   99  A    between atoms: O_82  and  C_196
REMARK  100  A    between atoms: O_82  and  C_197
REMARK  101  A    between atoms: C_83  and  C_85
REMARK  102  A    between atoms: O_84  and  C_198
REMARK  103  A    between atoms: O_84  and  C_199
REMARK  104  A    between atoms: C_87  and  C_89
REMARK  105  A    between atoms: O_88  and  C_215
REMARK  106  A    between atoms: O_88  and  C_216
REMARK  107  A    between atoms: O_90  and  C_217
REMARK  108  A    between atoms: O_90  and  C_218
REMARK  109  A    between atoms: O_92  and  C_219
REMARK  110  A    between atoms: O_92  and  C_220
REMARK  111  A    between atoms: O_94  and  C_221
REMARK  112  A    between atoms: O_94  and  C_222
REMARK  113  A    between atoms: O_96  and  C_223
REMARK  114  A    between atoms: O_96  and  C_224
REMARK  115  A    between atoms: C_97  and  C_99
REMARK  116  A    between atoms: O_98  and  C_225
REMARK  117  A    between atoms: O_98  and  C_226
REMARK  118  A    between atoms: C_99  and  C_105
REMARK  119  A    between atoms: O_100  and  C_227
REMARK  120  A    between atoms: O_100  and  C_228
REMARK  121  A    between atoms: O_102  and  C_229
REMARK  122  A    between atoms: O_102  and  C_230
REMARK  123  A    between atoms: O_104  and  C_231
REMARK  124  A    between atoms: O_104  and  C_232
REMARK  125  A    between atoms: C_105  and  C_107
REMARK  126  A    between atoms: O_106  and  C_233
REMARK  127  A    between atoms: O_106  and  C_234
REMARK  128  A    between atoms: C_117  and  C_118
REMARK  129  A    between atoms: C_119  and  C_120
REMARK  130  A    between atoms: C_121  and  C_122
REMARK  131  A    between atoms: C_123  and  C_124
REMARK  132  A    between atoms: C_125  and  C_126
REMARK  133  A    between atoms: C_127  and  C_128
REMARK  134  A    between atoms: C_129  and  C_130
REMARK  135  A    between atoms: C_131  and  C_132
REMARK  136  A    between atoms: C_133  and  C_134
REMARK  137  A    between atoms: C_135  and  C_136
REMARK  138  A    between atoms: C_138  and  C_139
REMARK  139  A    between atoms: C_139  and  C_142
REMARK  140  A    between atoms: C_142  and  C_145
REMARK  141  A    between atoms: C_150  and  C_151
REMARK  142  A    between atoms: C_151  and  C_152
REMARK  143  A    between atoms: C_152  and  C_155
REMARK  144  A    between atoms: C_155  and  C_158
REMARK  145  A    between atoms: C_163  and  C_164
REMARK  146  A    between atoms: C_166  and  C_167
REMARK  147  A    between atoms: C_167  and  C_168
REMARK  148  A    between atoms: C_168  and  C_171
REMARK  149  A    between atoms: C_178  and  C_179
REMARK  150  A    between atoms: C_179  and  C_180
REMARK  151  A    between atoms: C_179  and  C_214
REMARK  152  A    between atoms: C_181  and  C_182
REMARK  153  A    between atoms: C_183  and  C_184
REMARK  154  A    between atoms: C_185  and  C_186
REMARK  155  A    between atoms: C_187  and  C_188
REMARK  156  A    between atoms: C_189  and  C_190
REMARK  157  A    between atoms: C_191  and  C_192
REMARK  158  A    between atoms: C_193  and  C_194
REMARK  159  A    between atoms: C_195  and  C_196
REMARK  160  A    between atoms: C_197  and  C_198
REMARK  161  A    between atoms: C_199  and  C_200
REMARK  162  A    between atoms: C_203  and  C_204
REMARK  163  A    between atoms: C_203  and  C_214
REMARK  164  A    between atoms: C_204  and  C_207
REMARK  165  A    between atoms: C_207  and  C_210
REMARK  166  A    between atoms: C_216  and  C_217
REMARK  167  A    between atoms: C_218  and  C_219
REMARK  168  A    between atoms: C_220  and  C_221
REMARK  169  A    between atoms: C_222  and  C_223
REMARK  170  A    between atoms: C_224  and  C_225
REMARK  171  A    between atoms: C_226  and  C_227
REMARK  172  A    between atoms: C_228  and  C_229
REMARK  173  A    between atoms: C_230  and  C_231
REMARK  174  A    between atoms: C_232  and  C_233
REMARK  175  A    between atoms: C_234  and  C_235
REMARK                            x       y       z     vdW  Elec       q    Type
REMARK                         _______ _______ _______ _____ _____    ______ ____
ROOT
ATOM      1  C   UNL     1     -14.254  10.838  25.053  0.00  0.00    +0.000 C 
ENDROOT
BRANCH   1   2
ATOM      2  C   UNL     1     -12.473  10.158  25.490  0.00  0.00    +0.000 C 
BRANCH   2   3
ATOM      3  C   UNL     1     -12.275   8.628  25.749  0.00  0.00    +0.000 C 
ATOM      4  C   UNL     1     -11.618   8.332  27.239  0.00  0.00    +0.000 C 
ATOM      5  C   UNL     1     -10.106   8.167  27.173  0.00  0.00    +0.000 C 
ATOM      6  C   UNL     1      -9.789   6.704  26.274  0.00  0.00    +0.000 C 
ATOM      7  C   UNL     1      -9.852   6.711  24.802  0.00  0.00    +0.000 C 
ATOM      8  C   UNL     1     -11.326   7.542  24.300  0.00  0.00    +0.000 C 
BRANCH   5   9
ATOM      9  C   UNL     1      -9.433   8.164  28.653  0.00  0.00    +0.000 C 
ATOM     10  C   UNL     1     -10.311   8.299  29.486  0.00  0.00    +0.000 C 
ATOM     11  C   UNL     1      -8.515   6.866  28.712  0.00  0.00    +0.000 C 
BRANCH   9  12
ATOM     12  C   UNL     1      -8.329   9.365  28.855  0.00  0.00    +0.000 C 
ATOM     13  C   UNL     1      -7.183   9.245  27.818  0.00  0.00    +0.000 C 
ATOM     14  C   UNL     1      -7.368   9.077  30.235  0.00  0.00    +0.000 C 
BRANCH  12  15
ATOM     15  C   UNL     1      -8.763  10.769  29.134  0.00  0.00    +0.000 C 
ATOM     16  C   UNL     1      -8.782  10.690  30.654  0.00  0.00    +0.000 C 
ATOM     17  C   UNL     1     -10.131  11.147  28.727  0.00  0.00    +0.000 C 
ATOM     18  C   UNL     1      -7.834  11.780  28.608  0.00  0.00    +0.000 C 
ENDBRANCH  12  15
ENDBRANCH   9  12
ENDBRANCH   5   9
BRANCH   7  19
ATOM     19  C   UNL     1      -9.184   5.477  24.059  0.00  0.00    +0.000 C 
BRANCH  19  20
ATOM     20  C   UNL     1     -10.202   4.336  23.698  0.00  0.00    +0.000 C 
ATOM     21  C   UNL     1     -11.163   3.977  24.902  0.00  0.00    +0.000 C 
BRANCH  20  22
ATOM     22  O   UNL     1     -11.127   4.831  22.662  0.00  0.00    +0.000 OA
BRANCH  22  23
ATOM     23  C   UNL     1     -11.362   3.952  21.597  0.00  0.00    +0.000 C 
BRANCH  23  24
ATOM     24  C   UNL     1     -11.844   4.718  20.374  0.00  0.00    +0.000 C 
BRANCH  24  25
ATOM     25  O   UNL     1     -12.776   3.943  19.692  0.00  0.00    +0.000 OA
BRANCH  25  26
ATOM     26  C   UNL     1     -12.329   3.541  18.406  0.00  0.00    +0.000 C 
BRANCH  26  27
ATOM     27  C   UNL     1     -13.450   3.468  17.461  0.00  0.00    +0.000 C 
BRANCH  27  28
ATOM     28  O   UNL     1     -13.642   4.705  16.883  0.00  0.00    +0.000 OA
BRANCH  28  29
ATOM     29  C   UNL     1     -13.823   4.680  15.482  0.00  0.00    +0.000 C 
BRANCH  29  30
ATOM     30  C   UNL     1     -12.487   4.445  14.817  0.00  0.00    +0.000 C 
BRANCH  30  31
ATOM     31  O   UNL     1     -12.569   3.253  14.099  0.00  0.00    +0.000 OA
BRANCH  31  32
ATOM     32  C   UNL     1     -11.398   2.442  14.306  0.00  0.00    +0.000 C 
BRANCH  32  33
ATOM     33  C   UNL     1     -10.328   3.323  14.971  0.00  0.00    +0.000 C 
BRANCH  33  34
ATOM     34  O   UNL     1      -9.116   3.104  14.325  0.00  0.00    +0.000 OA
BRANCH  34  35
ATOM     35  C   UNL     1      -9.139   3.400  12.914  0.00  0.00    +0.000 C 
BRANCH  35  36
ATOM     36  C   UNL     1      -9.175   4.874  12.646  0.00  0.00    +0.000 C 
BRANCH  36  37
ATOM     37  O   UNL     1     -10.375   5.128  11.858  0.00  0.00    +0.000 OA
BRANCH  37  38
ATOM     38  C   UNL     1     -10.277   4.514  10.597  0.00  0.00    +0.000 C 
BRANCH  38  39
ATOM     39  C   UNL     1      -9.333   5.182   9.681  0.00  0.00    +0.000 C 
BRANCH  39  40
ATOM     40  O   UNL     1      -9.083   4.252   8.524  0.00  0.00    +0.000 OA
BRANCH  40  41
ATOM     41  C   UNL     1     -10.242   4.043   7.750  0.00  0.00    +0.000 C 
BRANCH  41  42
ATOM     42  C   UNL     1     -10.502   5.189   6.837  0.00  0.00    +0.000 C 
BRANCH  42  43
ATOM     43  O   UNL     1     -11.837   5.281   6.528  0.00  0.00    +0.000 OA
BRANCH  43  44
ATOM     44  C   UNL     1     -12.580   4.101   6.631  0.00  0.00    +0.000 C 
BRANCH  44  45
ATOM     45  C   UNL     1     -13.994   4.291   6.212  0.00  0.00    +0.000 C 
BRANCH  45  46
ATOM     46  O   UNL     1     -14.715   3.110   6.576  0.00  0.00    +0.000 OA
BRANCH  46  47
ATOM     47  C   UNL     1     -13.796   2.090   6.933  0.00  0.00    +0.000 C 
BRANCH  47  48
ATOM     48  C   UNL     1     -14.511   1.128   7.971  0.00  0.00    +0.000 C 
BRANCH  48  49
ATOM     49  O   UNL     1     -15.229   1.885   8.881  0.00  0.00    +0.000 OA
BRANCH  49  50
ATOM     50  C   UNL     1     -15.673   1.214  10.012  0.00  0.00    +0.000 C 
BRANCH  50  52
ATOM     51  O   UNL     1     -17.286  -0.527   9.779  0.00  0.00    +0.000 OA
ATOM     52  C   UNL     1     -15.869  -0.280   9.682  0.00  0.00    +0.000 C 
ENDBRANCH  50  52
ENDBRANCH  49  50
ENDBRANCH  48  49
ENDBRANCH  47  48
ENDBRANCH  46  47
ENDBRANCH  45  46
ENDBRANCH  44  45
ENDBRANCH  43  44
ENDBRANCH  42  43
ENDBRANCH  41  42
ENDBRANCH  40  41
ENDBRANCH  39  40
ENDBRANCH  38  39
ENDBRANCH  37  38
ENDBRANCH  36  37
ENDBRANCH  35  36
ENDBRANCH  34  35
ENDBRANCH  33  34
ENDBRANCH  32  33
ENDBRANCH  31  32
ENDBRANCH  30  31
ENDBRANCH  29  30
ENDBRANCH  28  29
ENDBRANCH  27  28
ENDBRANCH  26  27
ENDBRANCH  25  26
ENDBRANCH  24  25
ENDBRANCH  23  24
ENDBRANCH  22  23
ENDBRANCH  20  22
ENDBRANCH  19  20
BRANCH  19  53
ATOM     53  C   UNL     1      -8.402   5.779  22.677  0.00  0.00    +0.000 C 
BRANCH  53  55
ATOM     54  C   UNL     1      -8.210   4.684  20.580  0.00  0.00    +0.000 C 
ATOM     55  C   UNL     1      -7.620   5.012  21.904  0.00  0.00    +0.000 C 
BRANCH  55  56
ATOM     56  C   UNL     1      -6.239   4.486  22.291  0.00  0.00    +0.000 C 
ATOM     57  C   UNL     1      -6.561   3.271  23.093  0.00  0.00    +0.000 C 
ATOM     58  C   UNL     1      -5.520   4.034  21.052  0.00  0.00    +0.000 C 
BRANCH  56  59
ATOM     59  C   UNL     1      -5.420   5.549  23.083  0.00  0.00    +0.000 C 
ATOM     60  C   UNL     1      -5.743   5.551  24.526  0.00  0.00    +0.000 C 
ATOM     61  C   UNL     1      -5.758   6.934  22.481  0.00  0.00    +0.000 C 
BRANCH  59  62
ATOM     62  C   UNL     1      -3.837   5.388  22.947  0.00  0.00    +0.000 C 
ATOM     63  C   UNL     1      -3.336   4.297  23.825  0.00  0.00    +0.000 C 
ATOM     64  C   UNL     1      -3.157   6.646  23.429  0.00  0.00    +0.000 C 
ATOM     65  C   UNL     1      -3.375   5.204  21.583  0.00  0.00    +0.000 C 
ENDBRANCH  59  62
ENDBRANCH  56  59
ENDBRANCH  55  56
ENDBRANCH  53  55
ENDBRANCH  19  53
ENDBRANCH   7  19
BRANCH   8  66
ATOM     66  O   UNL     1     -11.893   7.536  23.059  0.00  0.00    +0.000 OA
BRANCH  66  67
ATOM     67  C   UNL     1     -11.449   8.540  22.175  0.00  0.00    +0.000 C 
BRANCH  67  68
ATOM     68  C   UNL     1     -12.365   8.881  20.979  0.00  0.00    +0.000 C 
BRANCH  68  69
ATOM     69  O   UNL     1     -13.374   7.913  20.892  0.00  0.00    +0.000 OA
BRANCH  69  70
ATOM     70  C   UNL     1     -14.713   8.473  21.090  0.00  0.00    +0.000 C 
BRANCH  70  71
ATOM     71  C   UNL     1     -14.926   9.695  20.214  0.00  0.00    +0.000 C 
BRANCH  71  72
ATOM     72  O   UNL     1     -16.131   9.442  19.289  0.00  0.00    +0.000 OA
BRANCH  72  73
ATOM     73  C   UNL     1     -16.341   8.049  19.098  0.00  0.00    +0.000 C 
BRANCH  73  74
ATOM     74  C   UNL     1     -17.782   7.706  19.495  0.00  0.00    +0.000 C 
BRANCH  74  75
ATOM     75  O   UNL     1     -18.615   7.668  18.380  0.00  0.00    +0.000 OA
BRANCH  75  76
ATOM     76  C   UNL     1     -19.434   8.837  18.244  0.00  0.00    +0.000 C 
BRANCH  76  77
ATOM     77  C   UNL     1     -20.899   8.494  18.207  0.00  0.00    +0.000 C 
BRANCH  77  78
ATOM     78  O   UNL     1     -21.423   9.251  17.125  0.00  0.00    +0.000 OA
BRANCH  78  79
ATOM     79  C   UNL     1     -22.844   8.992  16.867  0.00  0.00    +0.000 C 
BRANCH  79  80
ATOM     80  C   UNL     1     -23.354   8.230  18.029  0.00  0.00    +0.000 C 
BRANCH  80  81
ATOM     81  O   UNL     1     -24.626   7.584  17.756  0.00  0.00    +0.000 OA
BRANCH  81  82
ATOM     82  C   UNL     1     -24.504   6.287  17.266  0.00  0.00    +0.000 C 
BRANCH  82  83
ATOM     83  C   UNL     1     -23.264   5.597  17.871  0.00  0.00    +0.000 C 
BRANCH  83  84
ATOM     84  O   UNL     1     -23.624   4.848  19.007  0.00  0.00    +0.000 OA
BRANCH  84  85
ATOM     85  C   UNL     1     -24.668   4.017  18.902  0.00  0.00    +0.000 C 
BRANCH  85  86
ATOM     86  C   UNL     1     -24.201   2.547  18.954  0.00  0.00    +0.000 C 
BRANCH  86  87
ATOM     87  O   UNL     1     -22.804   2.411  18.915  0.00  0.00    +0.000 OA
BRANCH  87  88
ATOM     88  C   UNL     1     -22.192   2.461  20.156  0.00  0.00    +0.000 C 
BRANCH  88  89
ATOM     89  C   UNL     1     -22.598   1.280  21.021  0.00  0.00    +0.000 C 
BRANCH  89  90
ATOM     90  O   UNL     1     -22.679   1.693  22.381  0.00  0.00    +0.000 OA
BRANCH  90  91
ATOM     91  C   UNL     1     -23.230   0.613  23.164  0.00  0.00    +0.000 C 
BRANCH  91  92
ATOM     92  C   UNL     1     -24.412   1.158  23.924  0.00  0.00    +0.000 C 
BRANCH  92  93
ATOM     93  O   UNL     1     -24.620   2.510  23.525  0.00  0.00    +0.000 OA
BRANCH  93  94
ATOM     94  C   UNL     1     -25.942   2.889  23.538  0.00  0.00    +0.000 C 
BRANCH  94  96
ATOM     95  O   UNL     1     -27.960   1.665  23.084  0.00  0.00    +0.000 OA
ATOM     96  C   UNL     1     -26.840   1.710  23.928  0.00  0.00    +0.000 C 
ENDBRANCH  94  96
ENDBRANCH  93  94
ENDBRANCH  92  93
ENDBRANCH  91  92
ENDBRANCH  90  91
ENDBRANCH  89  90
ENDBRANCH  88  89
ENDBRANCH  87  88
ENDBRANCH  86  87
ENDBRANCH  85  86
ENDBRANCH  84  85
ENDBRANCH  83  84
ENDBRANCH  82  83
ENDBRANCH  81  82
ENDBRANCH  80  81
ENDBRANCH  79  80
ENDBRANCH  78  79
ENDBRANCH  77  78
ENDBRANCH  76  77
ENDBRANCH  75  76
ENDBRANCH  74  75
ENDBRANCH  73  74
ENDBRANCH  72  73
ENDBRANCH  71  72
ENDBRANCH  70  71
ENDBRANCH  69  70
ENDBRANCH  68  69
ENDBRANCH  67  68
ENDBRANCH  66  67
ENDBRANCH   8  66
ENDBRANCH   2   3
ENDBRANCH   1   2
BRANCH   1  97
ATOM     97  C   UNL     1     -14.664  12.293  24.914  0.00  0.00    +0.000 C 
BRANCH  97  98
ATOM     98  C   UNL     1     -16.270  12.471  24.834  0.00  0.00    +0.000 C 
ATOM     99  C   UNL     1     -16.863  13.079  26.140  0.00  0.00    +0.000 C 
ATOM    100  C   UNL     1     -18.440  13.297  26.176  0.00  0.00    +0.000 C 
ATOM    101  C   UNL     1     -19.720  13.680  26.778  0.00  0.00    +0.000 C 
ATOM    102  C   UNL     1     -21.045  12.979  26.593  0.00  0.00    +0.000 C 
ATOM    103  C   UNL     1     -22.239  13.417  27.284  0.00  0.00    +0.000 C 
ATOM    104  C   UNL     1     -22.080  14.509  28.206  0.00  0.00    +0.000 C 
ATOM    105  C   UNL     1     -20.907  15.241  28.353  0.00  0.00    +0.000 C 
ATOM    106  C   UNL     1     -19.863  14.778  27.611  0.00  0.00    +0.000 C 
ATOM    107  C   UNL     1     -18.785  12.786  25.605  0.00  0.00    +0.000 C 
ATOM    108  C   UNL     1     -18.556  12.318  24.357  0.00  0.00    +0.000 C 
ATOM    109  C   UNL     1     -17.164  12.453  23.723  0.00  0.00    +0.000 C 
BRANCH 103 110
ATOM    110  C   UNL     1     -23.571  12.739  26.976  0.00  0.00    +0.000 C 
ATOM    111  C   UNL     1     -23.173  11.504  26.118  0.00  0.00    +0.000 C 
ATOM    112  C   UNL     1     -24.127  12.182  28.204  0.00  0.00    +0.000 C 
BRANCH 110 113
ATOM    113  C   UNL     1     -24.699  13.485  26.227  0.00  0.00    +0.000 C 
ATOM    114  C   UNL     1     -24.056  14.153  25.054  0.00  0.00    +0.000 C 
ATOM    115  C   UNL     1     -25.748  12.469  25.765  0.00  0.00    +0.000 C 
BRANCH 113 116
ATOM    116  C   UNL     1     -25.501  14.549  27.104  0.00  0.00    +0.000 C 
ATOM    117  C   UNL     1     -25.712  14.041  28.517  0.00  0.00    +0.000 C 
ATOM    118  C   UNL     1     -26.879  14.728  26.576  0.00  0.00    +0.000 C 
ATOM    119  C   UNL     1     -24.808  15.882  27.100  0.00  0.00    +0.000 C 
ENDBRANCH 113 116
ENDBRANCH 110 113
ENDBRANCH 103 110
BRANCH 108 120
ATOM    120  C   UNL     1     -19.489  11.161  23.841  0.00  0.00    +0.000 C 
ATOM    121  C   UNL     1     -20.209  10.594  25.076  0.00  0.00    +0.000 C 
ATOM    122  C   UNL     1     -18.600  10.067  23.370  0.00  0.00    +0.000 C 
BRANCH 120 123
ATOM    123  C   UNL     1     -20.710  11.557  22.840  0.00  0.00    +0.000 C 
ATOM    124  C   UNL     1     -21.786  10.566  22.805  0.00  0.00    +0.000 C 
ATOM    125  C   UNL     1     -21.368  12.840  23.285  0.00  0.00    +0.000 C 
BRANCH 123 126
ATOM    126  C   UNL     1     -20.295  11.699  21.334  0.00  0.00    +0.000 C 
ATOM    127  C   UNL     1     -21.403  11.165  20.495  0.00  0.00    +0.000 C 
ATOM    128  C   UNL     1     -19.100  10.840  21.021  0.00  0.00    +0.000 C 
ATOM    129  C   UNL     1     -19.913  13.096  21.024  0.00  0.00    +0.000 C 
ENDBRANCH 123 126
ENDBRANCH 120 123
ENDBRANCH 108 120
BRANCH 106 130
ATOM    130  O   UNL     1     -18.735  15.561  27.525  0.00  0.00    +0.000 OA
BRANCH 130 131
ATOM    131  C   UNL     1     -18.285  16.291  28.692  0.00  0.00    +0.000 C 
BRANCH 131 132
ATOM    132  C   UNL     1     -17.977  17.707  28.242  0.00  0.00    +0.000 C 
BRANCH 132 133
ATOM    133  O   UNL     1     -18.387  17.892  26.932  0.00  0.00    +0.000 OA
BRANCH 133 134
ATOM    134  C   UNL     1     -19.565  18.675  26.819  0.00  0.00    +0.000 C 
BRANCH 134 135
ATOM    135  C   UNL     1     -20.453  18.096  25.774  0.00  0.00    +0.000 C 
BRANCH 135 136
ATOM    136  O   UNL     1     -19.740  17.686  24.976  0.00  0.00    +0.000 OA
BRANCH 136 137
ATOM    137  C   UNL     1     -20.227  16.557  24.340  0.00  0.00    +0.000 C 
BRANCH 137 138
ATOM    138  C   UNL     1     -19.171  15.859  23.416  0.00  0.00    +0.000 C 
BRANCH 138 139
ATOM    139  O   UNL     1     -17.959  16.012  24.000  0.00  0.00    +0.000 OA
BRANCH 139 140
ATOM    140  C   UNL     1     -16.914  16.301  23.046  0.00  0.00    +0.000 C 
BRANCH 140 141
ATOM    141  C   UNL     1     -17.280  17.530  22.274  0.00  0.00    +0.000 C 
BRANCH 141 142
ATOM    142  O   UNL     1     -16.503  17.606  21.100  0.00  0.00    +0.000 OA
BRANCH 142 143
ATOM    143  C   UNL     1     -16.996  16.787  20.043  0.00  0.00    +0.000 C 
BRANCH 143 144
ATOM    144  C   UNL     1     -15.843  16.449  19.061  0.00  0.00    +0.000 C 
BRANCH 144 145
ATOM    145  O   UNL     1     -15.428  17.603  18.312  0.00  0.00    +0.000 OA
BRANCH 145 146
ATOM    146  C   UNL     1     -15.469  17.547  16.879  0.00  0.00    +0.000 C 
BRANCH 146 147
ATOM    147  C   UNL     1     -14.457  18.464  16.239  0.00  0.00    +0.000 C 
BRANCH 147 148
ATOM    148  O   UNL     1     -15.176  19.432  15.452  0.00  0.00    +0.000 OA
BRANCH 148 149
ATOM    149  C   UNL     1     -16.496  19.061  15.092  0.00  0.00    +0.000 C 
BRANCH 149 150
ATOM    150  C   UNL     1     -16.681  19.214  13.597  0.00  0.00    +0.000 C 
BRANCH 150 151
ATOM    151  O   UNL     1     -15.907  18.201  12.940  0.00  0.00    +0.000 OA
BRANCH 151 152
ATOM    152  C   UNL     1     -15.021  18.638  11.969  0.00  0.00    +0.000 C 
BRANCH 152 153
ATOM    153  C   UNL     1     -13.691  17.911  12.060  0.00  0.00    +0.000 C 
BRANCH 153 154
ATOM    154  O   UNL     1     -13.751  16.948  13.110  0.00  0.00    +0.000 OA
BRANCH 154 155
ATOM    155  C   UNL     1     -12.531  16.318  13.381  0.00  0.00    +0.000 C 
BRANCH 155 156
ATOM    156  C   UNL     1     -11.519  17.337  13.963  0.00  0.00    +0.000 C 
BRANCH 156 157
ATOM    157  O   UNL     1     -10.219  16.748  13.863  0.00  0.00    +0.000 OA
BRANCH 157 158
ATOM    158  C   UNL     1      -9.568  16.646  15.101  0.00  0.00    +0.000 C 
BRANCH 158 160
ATOM    159  O   UNL     1      -7.278  16.631  16.035  0.00  0.00    +0.000 OA
ATOM    160  C   UNL     1      -8.144  16.540  14.774  0.00  0.00    +0.000 C 
ENDBRANCH 158 160
ENDBRANCH 157 158
ENDBRANCH 156 157
ENDBRANCH 155 156
ENDBRANCH 154 155
ENDBRANCH 153 154
ENDBRANCH 152 153
ENDBRANCH 151 152
ENDBRANCH 150 151
ENDBRANCH 149 150
ENDBRANCH 148 149
ENDBRANCH 147 148
ENDBRANCH 146 147
ENDBRANCH 145 146
ENDBRANCH 144 145
ENDBRANCH 143 144
ENDBRANCH 142 143
ENDBRANCH 141 142
ENDBRANCH 140 141
ENDBRANCH 139 140
ENDBRANCH 138 139
ENDBRANCH 137 138
ENDBRANCH 136 137
ENDBRANCH 135 136
ENDBRANCH 134 135
ENDBRANCH 133 134
ENDBRANCH 132 133
ENDBRANCH 131 132
ENDBRANCH 130 131
ENDBRANCH 106 130
BRANCH  99 161
ATOM    161  O   UNL     1     -16.343  12.722  27.360  0.00  0.00    +0.000 OA
BRANCH 161 162
ATOM    162  C   UNL     1     -17.227  12.473  28.459  0.00  0.00    +0.000 C 
BRANCH 162 163
ATOM    163  C   UNL     1     -16.806  13.072  29.792  0.00  0.00    +0.000 C 
BRANCH 163 164
ATOM    164  O   UNL     1     -17.644  12.625  30.814  0.00  0.00    +0.000 OA
BRANCH 164 165
ATOM    165  C   UNL     1     -17.496  11.275  31.166  0.00  0.00    +0.000 C 
BRANCH 165 166
ATOM    166  C   UNL     1     -16.096  10.941  31.689  0.00  0.00    +0.000 C 
BRANCH 166 167
ATOM    167  O   UNL     1     -15.511   9.916  30.847  0.00  0.00    +0.000 OA
BRANCH 167 168
ATOM    168  C   UNL     1     -14.308  10.370  30.264  0.00  0.00    +0.000 C 
BRANCH 168 169
ATOM    169  C   UNL     1     -13.577  11.322  31.200  0.00  0.00    +0.000 C 
BRANCH 169 170
ATOM    170  O   UNL     1     -12.294  10.847  31.465  0.00  0.00    +0.000 OA
BRANCH 170 171
ATOM    171  C   UNL     1     -11.817  11.192  32.751  0.00  0.00    +0.000 C 
BRANCH 171 172
ATOM    172  C   UNL     1     -11.160   9.968  33.466  0.00  0.00    +0.000 C 
BRANCH 172 173
ATOM    173  O   UNL     1     -12.198   9.051  33.770  0.00  0.00    +0.000 OA
BRANCH 173 174
ATOM    174  C   UNL     1     -11.874   7.731  33.234  0.00  0.00    +0.000 C 
BRANCH 174 175
ATOM    175  C   UNL     1     -12.800   7.416  32.061  0.00  0.00    +0.000 C 
BRANCH 175 176
ATOM    176  O   UNL     1     -13.756   6.507  32.500  0.00  0.00    +0.000 OA
BRANCH 176 177
ATOM    177  C   UNL     1     -14.926   7.145  32.986  0.00  0.00    +0.000 C 
BRANCH 177 178
ATOM    178  C   UNL     1     -15.700   6.100  33.780  0.00  0.00    +0.000 C 
BRANCH 178 179
ATOM    179  O   UNL     1     -17.013   6.570  34.031  0.00  0.00    +0.000 OA
BRANCH 179 180
ATOM    180  C   UNL     1     -17.815   6.678  32.825  0.00  0.00    +0.000 C 
BRANCH 180 181
ATOM    181  C   UNL     1     -18.111   5.283  32.273  0.00  0.00    +0.000 C 
BRANCH 181 182
ATOM    182  O   UNL     1     -18.168   5.312  30.874  0.00  0.00    +0.000 OA
BRANCH 182 183
ATOM    183  C   UNL     1     -19.536   5.511  30.371  0.00  0.00    +0.000 C 
BRANCH 183 184
ATOM    184  C   UNL     1     -20.614   4.869  31.245  0.00  0.00    +0.000 C 
BRANCH 184 185
ATOM    185  O   UNL     1     -21.672   4.554  30.400  0.00  0.00    +0.000 OA
BRANCH 185 186
ATOM    186  C   UNL     1     -22.441   3.432  30.868  0.00  0.00    +0.000 C 
BRANCH 186 187
ATOM    187  C   UNL     1     -23.699   3.902  31.563  0.00  0.00    +0.000 C 
BRANCH 187 188
ATOM    188  O   UNL     1     -23.682   5.387  31.466  0.00  0.00    +0.000 OA
BRANCH 188 189
ATOM    189  C   UNL     1     -24.923   5.928  31.964  0.00  0.00    +0.000 C 
BRANCH 189 191
ATOM    190  O   UNL     1     -24.310   8.040  31.089  0.00  0.00    +0.000 OA
ATOM    191  C   UNL     1     -25.305   7.072  31.053  0.00  0.00    +0.000 C 
ENDBRANCH 189 191
ENDBRANCH 188 189
ENDBRANCH 187 188
ENDBRANCH 186 187
ENDBRANCH 185 186
ENDBRANCH 184 185
ENDBRANCH 183 184
ENDBRANCH 182 183
ENDBRANCH 181 182
ENDBRANCH 180 181
ENDBRANCH 179 180
ENDBRANCH 178 179
ENDBRANCH 177 178
ENDBRANCH 176 177
ENDBRANCH 175 176
ENDBRANCH 174 175
ENDBRANCH 173 174
ENDBRANCH 172 173
ENDBRANCH 171 172
ENDBRANCH 170 171
ENDBRANCH 169 170
ENDBRANCH 168 169
ENDBRANCH 167 168
ENDBRANCH 166 167
ENDBRANCH 165 166
ENDBRANCH 164 165
ENDBRANCH 163 164
ENDBRANCH 162 163
ENDBRANCH 161 162
ENDBRANCH  99 161
ENDBRANCH  97  98
BRANCH  97 192
ATOM    192  C   UNL     1     -13.625  12.821  25.738  0.00  0.00    +0.000 C 
BRANCH 192 193
ATOM    193  C   UNL     1     -12.894  14.047  25.532  0.00  0.00    +0.000 C 
ATOM    194  C   UNL     1     -11.929  14.191  24.452  0.00  0.00    +0.000 C 
BRANCH 193 195
ATOM    195  C   UNL     1     -13.065  15.215  26.417  0.00  0.00    +0.000 C 
ATOM    196  C   UNL     1     -12.024  16.257  25.976  0.00  0.00    +0.000 C 
ATOM    197  C   UNL     1     -14.441  15.865  26.229  0.00  0.00    +0.000 C 
BRANCH 195 198
ATOM    198  C   UNL     1     -12.846  14.790  27.960  0.00  0.00    +0.000 C 
ATOM    199  C   UNL     1     -12.982  13.343  28.151  0.00  0.00    +0.000 C 
ATOM    200  C   UNL     1     -13.816  15.506  28.841  0.00  0.00    +0.000 C 
BRANCH 198 201
ATOM    201  C   UNL     1     -11.467  15.132  28.641  0.00  0.00    +0.000 C 
ATOM    202  C   UNL     1     -10.284  14.717  27.821  0.00  0.00    +0.000 C 
ATOM    203  C   UNL     1     -11.290  14.434  29.964  0.00  0.00    +0.000 C 
ATOM    204  C   UNL     1     -11.323  16.572  28.780  0.00  0.00    +0.000 C 
ENDBRANCH 198 201
ENDBRANCH 195 198
ENDBRANCH 193 195
ENDBRANCH 192 193
ENDBRANCH  97 192
ENDBRANCH   1  97
BRANCH   1 205
ATOM    205  O   UNL     1     -14.891  10.219  26.151  0.00  0.00    +0.000 OA
BRANCH 205 206
ATOM    206  C   UNL     1     -15.847   9.254  25.775  0.00  0.00    +0.000 C 
BRANCH 206 207
ATOM    207  C   UNL     1     -17.082   9.332  26.627  0.00  0.00    +0.000 C 
BRANCH 207 208
ATOM    208  O   UNL     1     -16.815   8.910  27.970  0.00  0.00    +0.000 OA
BRANCH 208 209
ATOM    209  C   UNL     1     -18.006   8.562  28.708  0.00  0.00    +0.000 C 
BRANCH 209 210
ATOM    210  C   UNL     1     -19.167   8.345  27.770  0.00  0.00    +0.000 C 
BRANCH 210 211
ATOM    211  C   UNL     1     -20.510   8.763  28.367  0.00  0.00    +0.000 C 
BRANCH 211 212
ATOM    212  C   UNL     1     -21.563   7.698  28.154  0.00  0.00    +0.000 C 
BRANCH 212 213
ATOM    213  C   UNL     1     -22.436   8.033  26.991  0.00  0.00    +0.000 C 
BRANCH 213 214
ATOM    214  O   UNL     1     -23.137   6.960  26.559  0.00  0.00    +0.000 OA
BRANCH 214 215
ATOM    215  C   UNL     1     -24.098   6.498  27.549  0.00  0.00    +0.000 C 
BRANCH 215 216
ATOM    216  C   UNL     1     -24.118   4.990  27.678  0.00  0.00    +0.000 C 
BRANCH 216 217
ATOM    217  O   UNL     1     -25.084   4.605  28.549  0.00  0.00    +0.000 OA
BRANCH 217 218
ATOM    218  C   UNL     1     -26.241   3.667  28.451  0.00  0.00    +0.000 C 
BRANCH 218 219
ATOM    219  C   UNL     1     -25.622   2.234  28.570  0.00  0.00    +0.000 C 
BRANCH 219 220
ATOM    220  O   UNL     1     -25.843   1.512  27.417  0.00  0.00    +0.000 OA
BRANCH 220 221
ATOM    221  C   UNL     1     -26.630   0.315  27.553  0.00  0.00    +0.000 C 
BRANCH 221 222
ATOM    222  C   UNL     1     -26.056  -0.765  26.640  0.00  0.00    +0.000 C 
BRANCH 222 223
ATOM    223  O   UNL     1     -25.340  -1.731  27.367  0.00  0.00    +0.000 OA
BRANCH 223 224
ATOM    224  C   UNL     1     -25.640  -1.759  28.750  0.00  0.00    +0.000 C 
BRANCH 224 225
ATOM    225  C   UNL     1     -25.349  -3.177  29.253  0.00  0.00    +0.000 C 
BRANCH 225 226
ATOM    226  O   UNL     1     -24.875  -3.151  30.597  0.00  0.00    +0.000 OA
BRANCH 226 227
ATOM    227  C   UNL     1     -23.562  -3.663  30.735  0.00  0.00    +0.000 C 
BRANCH 227 228
ATOM    228  C   UNL     1     -23.035  -4.005  29.365  0.00  0.00    +0.000 C 
BRANCH 228 229
ATOM    229  O   UNL     1     -21.812  -4.687  29.416  0.00  0.00    +0.000 OA
BRANCH 229 230
ATOM    230  C   UNL     1     -21.339  -5.048  28.146  0.00  0.00    +0.000 C 
BRANCH 230 231
ATOM    231  C   UNL     1     -19.911  -4.625  27.976  0.00  0.00    +0.000 C 
BRANCH 231 232
ATOM    232  O   UNL     1     -19.083  -5.759  28.051  0.00  0.00    +0.000 OA
BRANCH 232 233
ATOM    233  C   UNL     1     -18.508  -5.948  29.323  0.00  0.00    +0.000 C 
BRANCH 233 234
ATOM    234  C   UNL     1     -18.029  -4.626  29.883  0.00  0.00    +0.000 C 
ATOM    235  O   UNL     1     -16.670  -4.743  30.240  0.00  0.00    +0.000 OA
ENDBRANCH 233 234
ENDBRANCH 232 233
ENDBRANCH 231 232
ENDBRANCH 230 231
ENDBRANCH 229 230
ENDBRANCH 228 229
ENDBRANCH 227 228
ENDBRANCH 226 227
ENDBRANCH 225 226
ENDBRANCH 224 225
ENDBRANCH 223 224
ENDBRANCH 222 223
ENDBRANCH 221 222
ENDBRANCH 220 221
ENDBRANCH 219 220
ENDBRANCH 218 219
ENDBRANCH 217 218
ENDBRANCH 216 217
ENDBRANCH 215 216
ENDBRANCH 214 215
ENDBRANCH 213 214
ENDBRANCH 212 213
ENDBRANCH 211 212
ENDBRANCH 210 211
ENDBRANCH 209 210
ENDBRANCH 208 209
ENDBRANCH 207 208
ENDBRANCH 206 207
ENDBRANCH 205 206
ENDBRANCH   1 205
TORSDOF 175
ENDMDL
