REMARK  Name = human_CD1d_tween80_pred.rank_0
REMARK  81 active torsions:
REMARK  status: ('A' for Active; 'I' for Inactive)
REMARK    1  A    between atoms: C_1  and  C_3
REMARK    2  A    between atoms: C_3  and  O_4
REMARK    3  A    between atoms: O_4  and  C_5
REMARK    4  A    between atoms: C_5  and  C_7
REMARK    5  A    between atoms: O_6  and  C_7
REMARK    6  A    between atoms: O_6  and  C_9
REMARK    7  A    between atoms: O_8  and  C_11
REMARK    8  A    between atoms: O_8  and  C_13
REMARK    9  A    between atoms: C_9  and  C_11
REMARK   10  A    between atoms: O_10  and  C_15
REMARK   11  A    between atoms: O_10  and  C_17
REMARK   12  A    between atoms: O_12  and  C_19
REMARK   13  A    between atoms: O_12  and  C_21
REMARK   14  A    between atoms: C_13  and  C_15
REMARK   15  A    between atoms: O_14  and  C_23
REMARK   16  A    between atoms: O_14  and  C_25
REMARK   17  A    between atoms: O_16  and  C_27
REMARK   18  A    between atoms: O_16  and  C_29
REMARK   19  A    between atoms: C_17  and  C_19
REMARK   20  A    between atoms: O_18  and  C_31
REMARK   21  A    between atoms: O_18  and  C_33
REMARK   22  A    between atoms: O_20  and  C_35
REMARK   23  A    between atoms: O_20  and  C_37
REMARK   24  A    between atoms: C_21  and  C_23
REMARK   25  A    between atoms: C_21  and  C_67
REMARK   26  A    between atoms: O_22  and  C_39
REMARK   27  A    between atoms: O_22  and  C_41
REMARK   28  A    between atoms: O_24  and  C_43
REMARK   29  A    between atoms: O_24  and  C_45
REMARK   30  A    between atoms: C_25  and  C_27
REMARK   31  A    between atoms: O_28  and  C_69
REMARK   32  A    between atoms: O_28  and  C_70
REMARK   33  A    between atoms: C_29  and  C_31
REMARK   34  A    between atoms: O_30  and  C_71
REMARK   35  A    between atoms: O_30  and  C_72
REMARK   36  A    between atoms: O_32  and  C_73
REMARK   37  A    between atoms: O_32  and  C_74
REMARK   38  A    between atoms: C_33  and  C_35
REMARK   39  A    between atoms: O_34  and  C_75
REMARK   40  A    between atoms: O_34  and  C_76
REMARK   41  A    between atoms: O_36  and  C_77
REMARK   42  A    between atoms: O_36  and  C_78
REMARK   43  A    between atoms: C_37  and  C_39
REMARK   44  A    between atoms: O_40  and  C_80
REMARK   45  A    between atoms: O_40  and  C_81
REMARK   46  A    between atoms: C_41  and  C_43
REMARK   47  A    between atoms: O_42  and  C_82
REMARK   48  A    between atoms: O_42  and  C_83
REMARK   49  A    between atoms: O_44  and  C_84
REMARK   50  A    between atoms: O_44  and  C_85
REMARK   51  A    between atoms: C_45  and  C_47
REMARK   52  A    between atoms: O_46  and  C_86
REMARK   53  A    between atoms: O_46  and  C_87
REMARK   54  A    between atoms: C_47  and  C_49
REMARK   55  A    between atoms: O_48  and  C_88
REMARK   56  A    between atoms: O_48  and  C_89
REMARK   57  A    between atoms: C_49  and  C_51
REMARK   58  A    between atoms: C_51  and  C_53
REMARK   59  A    between atoms: C_53  and  C_54
REMARK   60  A    between atoms: C_54  and  C_55
REMARK   61  A    between atoms: C_55  and  C_56
REMARK   62  A    between atoms: C_56  and  C_57
REMARK   63  A    between atoms: C_57  and  C_58
REMARK   64  A    between atoms: C_58  and  C_59
REMARK   65  A    between atoms: C_59  and  C_60
REMARK   66  A    between atoms: C_60  and  C_61
REMARK   67  A    between atoms: C_61  and  C_62
REMARK   68  A    between atoms: C_62  and  C_63
REMARK   69  A    between atoms: C_63  and  C_64
REMARK   70  A    between atoms: C_64  and  C_65
REMARK   71  A    between atoms: C_67  and  C_68
REMARK   72  A    between atoms: C_70  and  C_71
REMARK   73  A    between atoms: C_72  and  C_73
REMARK   74  A    between atoms: C_74  and  C_75
REMARK   75  A    between atoms: C_76  and  C_77
REMARK   76  A    between atoms: C_78  and  C_79
REMARK   77  A    between atoms: C_81  and  C_82
REMARK   78  A    between atoms: C_83  and  C_84
REMARK   79  A    between atoms: C_85  and  C_86
REMARK   80  A    between atoms: C_87  and  C_88
REMARK   81  A    between atoms: C_89  and  C_90
REMARK                            x       y       z     vdW  Elec       q    Type
REMARK                         _______ _______ _______ _____ _____    ______ ____
ROOT
ATOM      1  C   UNL     1      18.778 -10.115   3.354  0.00  0.00    +0.000 C 
ENDROOT
BRANCH   1   2
ATOM      2  C   UNL     1      18.687 -10.210   5.020  0.00  0.00    +0.000 C 
BRANCH   2   4
ATOM      3  O   UNL     1      17.852  -8.056   5.718  0.00  0.00    +0.000 OA
ATOM      4  C   UNL     1      17.554  -9.398   5.557  0.00  0.00    +0.000 C 
ATOM      5  C   UNL     1      17.234  -9.707   7.045  0.00  0.00    +0.000 C 
ATOM      6  C   UNL     1      16.438  -8.423   7.419  0.00  0.00    +0.000 C 
ATOM      7  C   UNL     1      17.017  -7.372   6.570  0.00  0.00    +0.000 C 
BRANCH   6   8
ATOM      8  O   UNL     1      16.749  -8.105   8.767  0.00  0.00    +0.000 OA
BRANCH   8   9
ATOM      9  C   UNL     1      15.823  -7.195   9.405  0.00  0.00    +0.000 C 
BRANCH   9  10
ATOM     10  C   UNL     1      14.488  -7.876   9.554  0.00  0.00    +0.000 C 
BRANCH  10  11
ATOM     11  O   UNL     1      13.453  -6.925   9.387  0.00  0.00    +0.000 OA
BRANCH  11  12
ATOM     12  C   UNL     1      12.197  -7.457   9.763  0.00  0.00    +0.000 C 
BRANCH  12  13
ATOM     13  C   UNL     1      11.487  -8.139   8.618  0.00  0.00    +0.000 C 
BRANCH  13  14
ATOM     14  O   UNL     1      12.336  -9.204   8.177  0.00  0.00    +0.000 OA
BRANCH  14  15
ATOM     15  C   UNL     1      12.153 -10.375   8.902  0.00  0.00    +0.000 C 
BRANCH  15  16
ATOM     16  C   UNL     1      13.047 -11.500   8.315  0.00  0.00    +0.000 C 
BRANCH  16  17
ATOM     17  O   UNL     1      12.224 -12.320   7.570  0.00  0.00    +0.000 OA
BRANCH  17  18
ATOM     18  C   UNL     1      12.900 -12.929   6.455  0.00  0.00    +0.000 C 
BRANCH  18  19
ATOM     19  C   UNL     1      12.723 -11.991   5.262  0.00  0.00    +0.000 C 
BRANCH  19  20
ATOM     20  O   UNL     1      13.348 -12.497   4.146  0.00  0.00    +0.000 OA
BRANCH  20  21
ATOM     21  C   UNL     1      13.185 -11.656   3.036  0.00  0.00    +0.000 C 
BRANCH  21  23
ATOM     22  O   UNL     1      15.499 -11.738   2.482  0.00  0.00    +0.000 OA
ATOM     23  C   UNL     1      14.177 -11.997   1.960  0.00  0.00    +0.000 C 
ENDBRANCH  21  23
ENDBRANCH  20  21
ENDBRANCH  19  20
ENDBRANCH  18  19
ENDBRANCH  17  18
ENDBRANCH  16  17
ENDBRANCH  15  16
ENDBRANCH  14  15
ENDBRANCH  13  14
ENDBRANCH  12  13
ENDBRANCH  11  12
ENDBRANCH  10  11
ENDBRANCH   9  10
ENDBRANCH   8   9
ENDBRANCH   6   8
BRANCH   5  24
ATOM     24  O   UNL     1      16.420 -10.853   7.146  0.00  0.00    +0.000 OA
BRANCH  24  25
ATOM     25  C   UNL     1      16.623 -11.587   8.340  0.00  0.00    +0.000 C 
BRANCH  25  26
ATOM     26  C   UNL     1      17.655 -12.682   8.170  0.00  0.00    +0.000 C 
BRANCH  26  27
ATOM     27  O   UNL     1      17.924 -13.238   9.440  0.00  0.00    +0.000 OA
BRANCH  27  28
ATOM     28  C   UNL     1      18.809 -14.345   9.386  0.00  0.00    +0.000 C 
BRANCH  28  29
ATOM     29  C   UNL     1      19.563 -14.548  10.683  0.00  0.00    +0.000 C 
BRANCH  29  30
ATOM     30  O   UNL     1      20.660 -15.413  10.478  0.00  0.00    +0.000 OA
BRANCH  30  31
ATOM     31  C   UNL     1      21.755 -15.177  11.372  0.00  0.00    +0.000 C 
BRANCH  31  32
ATOM     32  C   UNL     1      23.043 -14.983  10.577  0.00  0.00    +0.000 C 
BRANCH  32  33
ATOM     33  O   UNL     1      24.092 -14.478  11.379  0.00  0.00    +0.000 OA
BRANCH  33  34
ATOM     34  C   UNL     1      25.050 -13.749  10.646  0.00  0.00    +0.000 C 
BRANCH  34  35
ATOM     35  C   UNL     1      26.267 -13.374  11.520  0.00  0.00    +0.000 C 
BRANCH  35  36
ATOM     36  O   UNL     1      26.114 -12.051  11.958  0.00  0.00    +0.000 OA
BRANCH  36  37
ATOM     37  C   UNL     1      27.179 -11.716  12.831  0.00  0.00    +0.000 C 
BRANCH  37  39
ATOM     38  O   UNL     1      28.198  -9.859  13.953  0.00  0.00    +0.000 OA
ATOM     39  C   UNL     1      26.966 -10.358  13.432  0.00  0.00    +0.000 C 
ENDBRANCH  37  39
ENDBRANCH  36  37
ENDBRANCH  35  36
ENDBRANCH  34  35
ENDBRANCH  33  34
ENDBRANCH  32  33
ENDBRANCH  31  32
ENDBRANCH  30  31
ENDBRANCH  29  30
ENDBRANCH  28  29
ENDBRANCH  27  28
ENDBRANCH  26  27
ENDBRANCH  25  26
ENDBRANCH  24  25
ENDBRANCH   5  24
ENDBRANCH   2   4
ENDBRANCH   1   2
BRANCH   1  40
ATOM     40  O   UNL     1      17.437 -10.027   2.854  0.00  0.00    +0.000 OA
BRANCH  40  41
ATOM     41  C   UNL     1      17.342  -9.062   1.822  0.00  0.00    +0.000 C 
BRANCH  41  42
ATOM     42  C   UNL     1      15.893  -8.886   1.359  0.00  0.00    +0.000 C 
BRANCH  42  43
ATOM     43  O   UNL     1      15.598  -7.538   1.293  0.00  0.00    +0.000 OA
BRANCH  43  44
ATOM     44  C   UNL     1      14.239  -7.277   0.944  0.00  0.00    +0.000 C 
BRANCH  44  45
ATOM     45  C   UNL     1      13.991  -5.779   0.983  0.00  0.00    +0.000 C 
BRANCH  45  46
ATOM     46  O   UNL     1      14.018  -5.341   2.305  0.00  0.00    +0.000 OA
BRANCH  46  47
ATOM     47  C   UNL     1      13.720  -3.983   2.400  0.00  0.00    +0.000 C 
BRANCH  47  48
ATOM     48  C   UNL     1      13.750  -3.565   3.871  0.00  0.00    +0.000 C 
BRANCH  48  49
ATOM     49  O   UNL     1      12.675  -4.180   4.537  0.00  0.00    +0.000 OA
BRANCH  49  50
ATOM     50  C   UNL     1      12.707  -4.030   5.938  0.00  0.00    +0.000 C 
BRANCH  50  51
ATOM     51  C   UNL     1      13.732  -5.000   6.494  0.00  0.00    +0.000 C 
BRANCH  51  52
ATOM     52  O   UNL     1      13.222  -6.326   6.256  0.00  0.00    +0.000 OA
BRANCH  52  53
ATOM     53  C   UNL     1      13.910  -6.996   5.195  0.00  0.00    +0.000 C 
BRANCH  53  54
ATOM     54  C   UNL     1      13.665  -8.462   5.217  0.00  0.00    +0.000 C 
ATOM     55  O   UNL     1      14.012  -8.999   3.953  0.00  0.00    +0.000 OA
ENDBRANCH  53  54
ENDBRANCH  52  53
ENDBRANCH  51  52
ENDBRANCH  50  51
ENDBRANCH  49  50
ENDBRANCH  48  49
ENDBRANCH  47  48
ENDBRANCH  46  47
ENDBRANCH  45  46
ENDBRANCH  44  45
ENDBRANCH  43  44
ENDBRANCH  42  43
ENDBRANCH  41  42
ENDBRANCH  40  41
ENDBRANCH   1  40
BRANCH   1  56
ATOM     56  C   UNL     1      19.474 -11.354   2.881  0.00  0.00    +0.000 C 
BRANCH  56  57
ATOM     57  O   UNL     1      20.804 -11.051   2.812  0.00  0.00    +0.000 OA
BRANCH  57  58
ATOM     58  C   UNL     1      21.522 -12.200   2.275  0.00  0.00    +0.000 C 
BRANCH  58  59
ATOM     59  C   UNL     1      23.016 -11.969   2.377  0.00  0.00    +0.000 C 
BRANCH  59  60
ATOM     60  O   UNL     1      23.313 -11.463   3.655  0.00  0.00    +0.000 OA
BRANCH  60  61
ATOM     61  C   UNL     1      24.107 -12.356   4.396  0.00  0.00    +0.000 C 
BRANCH  61  62
ATOM     62  C   UNL     1      24.914 -11.529   5.406  0.00  0.00    +0.000 C 
BRANCH  62  63
ATOM     63  O   UNL     1      25.731 -12.425   6.182  0.00  0.00    +0.000 OA
BRANCH  63  64
ATOM     64  C   UNL     1      26.638 -11.706   7.026  0.00  0.00    +0.000 C 
BRANCH  64  65
ATOM     65  C   UNL     1      28.073 -12.054   6.676  0.00  0.00    +0.000 C 
BRANCH  65  66
ATOM     66  O   UNL     1      28.519 -11.128   5.678  0.00  0.00    +0.000 OA
BRANCH  66  67
ATOM     67  C   UNL     1      29.755 -11.552   5.056  0.00  0.00    +0.000 C 
BRANCH  67  68
ATOM     68  C   UNL     1      30.116 -10.478   3.988  0.00  0.00    +0.000 C 
BRANCH  68  69
ATOM     69  O   UNL     1      29.211 -10.569   2.893  0.00  0.00    +0.000 OA
BRANCH  69  70
ATOM     70  C   UNL     1      29.035  -9.322   2.214  0.00  0.00    +0.000 C 
BRANCH  70  71
ATOM     71  C   UNL     1      28.577  -9.556   0.810  0.00  0.00    +0.000 C 
BRANCH  71  72
ATOM     72  O   UNL     1      27.311 -10.158   0.825  0.00  0.00    +0.000 OA
BRANCH  72  74
ATOM     73  O   UNL     1      26.853  -8.761  -0.832  0.00  0.00    +0.000 OA
ATOM     74  C   UNL     1      26.487  -9.625  -0.130  0.00  0.00    +0.000 C 
BRANCH  74  75
ATOM     75  C   UNL     1      25.095 -10.163  -0.211  0.00  0.00    +0.000 C 
BRANCH  75  76
ATOM     76  C   UNL     1      24.088  -9.069  -0.680  0.00  0.00    +0.000 C 
BRANCH  76  77
ATOM     77  C   UNL     1      24.400  -8.796  -2.128  0.00  0.00    +0.000 C 
BRANCH  77  78
ATOM     78  C   UNL     1      23.346  -7.900  -2.710  0.00  0.00    +0.000 C 
BRANCH  78  79
ATOM     79  C   UNL     1      22.123  -8.701  -3.042  0.00  0.00    +0.000 C 
BRANCH  79  80
ATOM     80  C   UNL     1      21.226  -7.864  -3.938  0.00  0.00    +0.000 C 
BRANCH  80  81
ATOM     81  C   UNL     1      20.327  -8.802  -4.687  0.00  0.00    +0.000 C 
BRANCH  81  82
ATOM     82  C   UNL     1      19.482  -8.055  -5.680  0.00  0.00    +0.000 C 
BRANCH  82  83
ATOM     83  C   UNL     1      20.349  -7.443  -6.734  0.00  0.00    +0.000 C 
BRANCH  83  84
ATOM     84  C   UNL     1      19.441  -6.707  -7.711  0.00  0.00    +0.000 C 
BRANCH  84  85
ATOM     85  C   UNL     1      20.267  -5.754  -8.509  0.00  0.00    +0.000 C 
BRANCH  85  86
ATOM     86  C   UNL     1      20.308  -6.257  -9.957  0.00  0.00    +0.000 C 
BRANCH  86  87
ATOM     87  C   UNL     1      21.109  -5.279 -10.800  0.00  0.00    +0.000 C 
BRANCH  87  88
ATOM     88  C   UNL     1      20.181  -4.135 -11.157  0.00  0.00    +0.000 C 
BRANCH  88  89
ATOM     89  C   UNL     1      21.030  -2.897 -11.391  0.00  0.00    +0.000 C 
BRANCH  89  90
ATOM     90  C   UNL     1      20.182  -1.786 -11.934  0.00  0.00    +0.000 C 
ATOM     91  C   UNL     1      20.955  -0.480 -11.911  0.00  0.00    +0.000 C 
ENDBRANCH  89  90
ENDBRANCH  88  89
ENDBRANCH  87  88
ENDBRANCH  86  87
ENDBRANCH  85  86
ENDBRANCH  84  85
ENDBRANCH  83  84
ENDBRANCH  82  83
ENDBRANCH  81  82
ENDBRANCH  80  81
ENDBRANCH  79  80
ENDBRANCH  78  79
ENDBRANCH  77  78
ENDBRANCH  76  77
ENDBRANCH  75  76
ENDBRANCH  74  75
ENDBRANCH  72  74
ENDBRANCH  71  72
ENDBRANCH  70  71
ENDBRANCH  69  70
ENDBRANCH  68  69
ENDBRANCH  67  68
ENDBRANCH  66  67
ENDBRANCH  65  66
ENDBRANCH  64  65
ENDBRANCH  63  64
ENDBRANCH  62  63
ENDBRANCH  61  62
ENDBRANCH  60  61
ENDBRANCH  59  60
ENDBRANCH  58  59
ENDBRANCH  57  58
ENDBRANCH  56  57
ENDBRANCH   1  56
TORSDOF 81
