human_CD1d_tween80_pred.rank_0
  PyMOL3.1          3D                             0

 91 91  0  0  0  0  0  0  0  0999 V2000
   13.6650   -8.4620    5.2170 C   0  0  0  0  0  0  0  0  0  0  0  0
   14.0120   -8.9990    3.9530 O   0  0  0  0  0  0  0  0  0  0  0  0
   13.9100   -6.9960    5.1950 C   0  0  0  0  0  0  0  0  0  0  0  0
   13.2220   -6.3260    6.2560 O   0  0  0  0  0  0  0  0  0  0  0  0
   13.7320   -5.0000    6.4940 C   0  0  0  0  0  0  0  0  0  0  0  0
   12.6750   -4.1800    4.5370 O   0  0  0  0  0  0  0  0  0  0  0  0
   12.7070   -4.0300    5.9380 C   0  0  0  0  0  0  0  0  0  0  0  0
   14.0180   -5.3410    2.3050 O   0  0  0  0  0  0  0  0  0  0  0  0
   13.7500   -3.5650    3.8710 C   0  0  0  0  0  0  0  0  0  0  0  0
   15.5980   -7.5380    1.2930 O   0  0  0  0  0  0  0  0  0  0  0  0
   13.7200   -3.9830    2.4000 C   0  0  0  0  0  0  0  0  0  0  0  0
   17.4370  -10.0270    2.8540 O   0  0  0  0  0  0  0  0  0  0  0  0
   13.9910   -5.7790    0.9830 C   0  0  0  0  0  0  0  0  0  0  0  0
   20.8040  -11.0510    2.8120 O   0  0  0  0  0  0  0  0  0  0  0  0
   14.2390   -7.2770    0.9440 C   0  0  0  0  0  0  0  0  0  0  0  0
   23.3130  -11.4630    3.6550 O   0  0  0  0  0  0  0  0  0  0  0  0
   15.8930   -8.8860    1.3590 C   0  0  0  0  0  0  0  0  0  0  0  0
   25.7310  -12.4250    6.1820 O   0  0  0  0  0  0  0  0  0  0  0  0
   17.3420   -9.0620    1.8220 C   0  0  0  0  0  0  0  0  0  0  0  0
   28.5190  -11.1280    5.6780 O   0  0  0  0  0  0  0  0  0  0  0  0
   18.7780  -10.1150    3.3540 C   0  0  0  0  0  0  0  0  0  0  0  0
   29.2110  -10.5690    2.8930 O   0  0  0  0  0  0  0  0  0  0  0  0
   19.4740  -11.3540    2.8810 C   0  0  0  0  0  0  0  0  0  0  0  0
   27.3110  -10.1580    0.8250 O   0  0  0  0  0  0  0  0  0  0  0  0
   21.5220  -12.2000    2.2750 C   0  0  0  0  0  0  0  0  0  0  0  0
   26.8530   -8.7610   -0.8320 O   0  0  0  0  0  0  0  0  0  0  0  0
   23.0160  -11.9690    2.3770 C   0  0  0  0  0  0  0  0  0  0  0  0
   16.4200  -10.8530    7.1460 O   0  0  0  0  0  0  0  0  0  0  0  0
   24.1070  -12.3560    4.3960 C   0  0  0  0  0  0  0  0  0  0  0  0
   17.9240  -13.2380    9.4400 O   0  0  0  0  0  0  0  0  0  0  0  0
   24.9140  -11.5290    5.4060 C   0  0  0  0  0  0  0  0  0  0  0  0
   20.6600  -15.4130   10.4780 O   0  0  0  0  0  0  0  0  0  0  0  0
   26.6380  -11.7060    7.0260 C   0  0  0  0  0  0  0  0  0  0  0  0
   24.0920  -14.4780   11.3790 O   0  0  0  0  0  0  0  0  0  0  0  0
   28.0730  -12.0540    6.6760 C   0  0  0  0  0  0  0  0  0  0  0  0
   26.1140  -12.0510   11.9580 O   0  0  0  0  0  0  0  0  0  0  0  0
   29.7550  -11.5520    5.0560 C   0  0  0  0  0  0  0  0  0  0  0  0
   28.1980   -9.8590   13.9530 O   0  0  0  0  0  0  0  0  0  0  0  0
   30.1160  -10.4780    3.9880 C   0  0  0  0  0  0  0  0  0  0  0  0
   16.7490   -8.1050    8.7670 O   0  0  0  0  0  0  0  0  0  0  0  0
   29.0350   -9.3220    2.2140 C   0  0  0  0  0  0  0  0  0  0  0  0
   13.4530   -6.9250    9.3870 O   0  0  0  0  0  0  0  0  0  0  0  0
   28.5770   -9.5560    0.8100 C   0  0  0  0  0  0  0  0  0  0  0  0
   12.3360   -9.2040    8.1770 O   0  0  0  0  0  0  0  0  0  0  0  0
   26.4870   -9.6250   -0.1300 C   0  0  0  0  0  0  0  0  0  0  0  0
   12.2240  -12.3200    7.5700 O   0  0  0  0  0  0  0  0  0  0  0  0
   25.0950  -10.1630   -0.2110 C   0  0  0  0  0  0  0  0  0  0  0  0
   13.3480  -12.4970    4.1460 O   0  0  0  0  0  0  0  0  0  0  0  0
   24.0880   -9.0690   -0.6800 C   0  0  0  0  0  0  0  0  0  0  0  0
   15.4990  -11.7380    2.4820 O   0  0  0  0  0  0  0  0  0  0  0  0
   24.4000   -8.7960   -2.1280 C   0  0  0  0  0  0  0  0  0  0  0  0
   17.8520   -8.0560    5.7180 O   0  0  0  0  0  0  0  0  0  0  0  0
   23.3460   -7.9000   -2.7100 C   0  0  0  0  0  0  0  0  0  0  0  0
   22.1230   -8.7010   -3.0420 C   0  0  0  0  0  0  0  0  0  0  0  0
   21.2260   -7.8640   -3.9380 C   0  0  0  0  0  0  0  0  0  0  0  0
   20.3270   -8.8020   -4.6870 C   0  0  0  0  0  0  0  0  0  0  0  0
   19.4820   -8.0550   -5.6800 C   0  0  0  0  0  0  0  0  0  0  0  0
   20.3490   -7.4430   -6.7340 C   0  0  0  0  0  0  0  0  0  0  0  0
   19.4410   -6.7070   -7.7110 C   0  0  0  0  0  0  0  0  0  0  0  0
   20.2670   -5.7540   -8.5090 C   0  0  0  0  0  0  0  0  0  0  0  0
   20.3080   -6.2570   -9.9570 C   0  0  0  0  0  0  0  0  0  0  0  0
   21.1090   -5.2790  -10.8000 C   0  0  0  0  0  0  0  0  0  0  0  0
   20.1810   -4.1350  -11.1570 C   0  0  0  0  0  0  0  0  0  0  0  0
   21.0300   -2.8970  -11.3910 C   0  0  0  0  0  0  0  0  0  0  0  0
   20.1820   -1.7860  -11.9340 C   0  0  0  0  0  0  0  0  0  0  0  0
   20.9550   -0.4800  -11.9110 C   0  0  0  0  0  0  0  0  0  0  0  0
   18.6870  -10.2100    5.0200 C   0  0  0  0  0  0  0  0  0  0  0  0
   17.5540   -9.3980    5.5570 C   0  0  0  0  0  0  0  0  0  0  0  0
   17.2340   -9.7070    7.0450 C   0  0  0  0  0  0  0  0  0  0  0  0
   16.6230  -11.5870    8.3400 C   0  0  0  0  0  0  0  0  0  0  0  0
   17.6550  -12.6820    8.1700 C   0  0  0  0  0  0  0  0  0  0  0  0
   18.8090  -14.3450    9.3860 C   0  0  0  0  0  0  0  0  0  0  0  0
   19.5630  -14.5480   10.6830 C   0  0  0  0  0  0  0  0  0  0  0  0
   21.7550  -15.1770   11.3720 C   0  0  0  0  0  0  0  0  0  0  0  0
   23.0430  -14.9830   10.5770 C   0  0  0  0  0  0  0  0  0  0  0  0
   25.0500  -13.7490   10.6460 C   0  0  0  0  0  0  0  0  0  0  0  0
   26.2670  -13.3740   11.5200 C   0  0  0  0  0  0  0  0  0  0  0  0
   27.1790  -11.7160   12.8310 C   0  0  0  0  0  0  0  0  0  0  0  0
   26.9660  -10.3580   13.4320 C   0  0  0  0  0  0  0  0  0  0  0  0
   16.4380   -8.4230    7.4190 C   0  0  0  0  0  0  0  0  0  0  0  0
   15.8230   -7.1950    9.4050 C   0  0  0  0  0  0  0  0  0  0  0  0
   14.4880   -7.8760    9.5540 C   0  0  0  0  0  0  0  0  0  0  0  0
   12.1970   -7.4570    9.7630 C   0  0  0  0  0  0  0  0  0  0  0  0
   11.4870   -8.1390    8.6180 C   0  0  0  0  0  0  0  0  0  0  0  0
   12.1530  -10.3750    8.9020 C   0  0  0  0  0  0  0  0  0  0  0  0
   13.0470  -11.5000    8.3150 C   0  0  0  0  0  0  0  0  0  0  0  0
   12.9000  -12.9290    6.4550 C   0  0  0  0  0  0  0  0  0  0  0  0
   12.7230  -11.9910    5.2620 C   0  0  0  0  0  0  0  0  0  0  0  0
   13.1850  -11.6560    3.0360 C   0  0  0  0  0  0  0  0  0  0  0  0
   14.1770  -11.9970    1.9600 C   0  0  0  0  0  0  0  0  0  0  0  0
   17.0170   -7.3720    6.5700 C   0  0  0  0  0  0  0  0  0  0  0  0
  1  3  1  0  0  0  0
  1  2  1  0  0  0  0
  3  4  1  0  0  0  0
  4  5  1  0  0  0  0
  5  7  1  0  0  0  0
  6  9  1  0  0  0  0
  6  7  1  0  0  0  0
  8 13  1  0  0  0  0
  9 11  1  0  0  0  0
 10 17  1  0  0  0  0
  8 11  1  0  0  0  0
 12 21  1  0  0  0  0
 13 15  1  0  0  0  0
 14 25  1  0  0  0  0
 10 15  1  0  0  0  0
 16 29  1  0  0  0  0
 17 19  1  0  0  0  0
 18 33  1  0  0  0  0
 12 19  1  0  0  0  0
 20 37  1  0  0  0  0
 21 23  1  0  0  0  0
 21 67  1  0  0  0  0
 22 41  1  0  0  0  0
 14 23  1  0  0  0  0
 24 45  1  0  0  0  0
 25 27  1  0  0  0  0
 16 27  1  0  0  0  0
 28 70  1  0  0  0  0
 29 31  1  0  0  0  0
 30 72  1  0  0  0  0
 18 31  1  0  0  0  0
 32 74  1  0  0  0  0
 33 35  1  0  0  0  0
 34 76  1  0  0  0  0
 20 35  1  0  0  0  0
 36 78  1  0  0  0  0
 37 39  1  0  0  0  0
 22 39  1  0  0  0  0
 40 81  1  0  0  0  0
 41 43  1  0  0  0  0
 42 83  1  0  0  0  0
 24 43  1  0  0  0  0
 44 85  1  0  0  0  0
 26 45  2  0  0  0  0
 45 47  1  0  0  0  0
 46 87  1  0  0  0  0
 47 49  1  0  0  0  0
 48 89  1  0  0  0  0
 49 51  1  0  0  0  0
 51 53  1  0  0  0  0
 53 54  1  0  0  0  0
 54 55  1  0  0  0  0
 55 56  1  0  0  0  0
 56 57  1  0  0  0  0
 57 58  1  0  0  0  0
 58 59  1  0  0  0  0
 59 60  1  0  0  0  0
 60 61  1  0  0  0  0
 61 62  1  0  0  0  0
 62 63  1  0  0  0  0
 63 64  1  0  0  0  0
 64 65  1  0  0  0  0
 65 66  1  0  0  0  0
 67 68  1  0  0  0  0
 52 68  1  0  0  0  0
 68 69  1  0  0  0  0
 28 69  1  0  0  0  0
 69 80  1  0  0  0  0
 70 71  1  0  0  0  0
 30 71  1  0  0  0  0
 72 73  1  0  0  0  0
 32 73  1  0  0  0  0
 74 75  1  0  0  0  0
 34 75  1  0  0  0  0
 76 77  1  0  0  0  0
 36 77  1  0  0  0  0
 78 79  1  0  0  0  0
 38 79  1  0  0  0  0
 40 80  1  0  0  0  0
 80 91  1  0  0  0  0
 81 82  1  0  0  0  0
 42 82  1  0  0  0  0
 83 84  1  0  0  0  0
 44 84  1  0  0  0  0
 85 86  1  0  0  0  0
 46 86  1  0  0  0  0
 87 88  1  0  0  0  0
 48 88  1  0  0  0  0
 89 90  1  0  0  0  0
 50 90  1  0  0  0  0
 52 91  1  0  0  0  0
M  END
$$$$
