human_CD1d_brij35_pred.rank_0
  PyMOL3.1          3D                             0

 82 81  0  0  0  0  0  0  0  0999 V2000
  -20.3220  -12.6380    0.3040 C   0  0  0  0  0  0  0  0  0  0  0  0
  -16.3400  -15.4910    9.6740 O   0  0  0  0  0  0  0  0  0  0  0  0
  -21.1250  -11.8380    1.3070 C   0  0  0  0  0  0  0  0  0  0  0  0
  -15.3080  -14.5900   13.0100 O   0  0  0  0  0  0  0  0  0  0  0  0
  -20.3500  -11.6780    2.5890 C   0  0  0  0  0  0  0  0  0  0  0  0
  -12.3740  -13.0220   14.3730 O   0  0  0  0  0  0  0  0  0  0  0  0
  -21.2050  -11.0050    3.6270 C   0  0  0  0  0  0  0  0  0  0  0  0
   -9.9120  -11.6430   13.3630 O   0  0  0  0  0  0  0  0  0  0  0  0
  -20.6830  -11.2660    5.0310 C   0  0  0  0  0  0  0  0  0  0  0  0
   -8.3810  -10.6080   11.1460 O   0  0  0  0  0  0  0  0  0  0  0  0
  -19.3610  -10.5240    5.2340 C   0  0  0  0  0  0  0  0  0  0  0  0
   -6.9400  -11.2880    8.8470 O   0  0  0  0  0  0  0  0  0  0  0  0
  -19.0450  -10.4860    6.7170 C   0  0  0  0  0  0  0  0  0  0  0  0
   -3.3750  -11.7450    8.6950 O   0  0  0  0  0  0  0  0  0  0  0  0
  -17.6880  -11.0890    6.9310 C   0  0  0  0  0  0  0  0  0  0  0  0
   -1.3940  -11.7160   11.6980 O   0  0  0  0  0  0  0  0  0  0  0  0
  -17.3160  -10.9550    8.3820 C   0  0  0  0  0  0  0  0  0  0  0  0
   -1.6050  -10.3270   14.6150 O   0  0  0  0  0  0  0  0  0  0  0  0
  -17.7580  -12.2050    9.1470 C   0  0  0  0  0  0  0  0  0  0  0  0
   -3.4800   -9.0960   16.0910 O   0  0  0  0  0  0  0  0  0  0  0  0
  -16.8530  -13.3650    8.7400 C   0  0  0  0  0  0  0  0  0  0  0  0
   -6.4000  -10.9630   16.7210 O   0  0  0  0  0  0  0  0  0  0  0  0
  -17.4460  -14.6400    9.4200 C   0  0  0  0  0  0  0  0  0  0  0  0
   -5.8630  -13.5230   19.2300 O   0  0  0  0  0  0  0  0  0  0  0  0
  -16.2050  -15.6770   11.1020 C   0  0  0  0  0  0  0  0  0  0  0  0
   -7.1770  -14.9620   22.3400 O   0  0  0  0  0  0  0  0  0  0  0  0
  -15.3430  -14.4910   11.5860 C   0  0  0  0  0  0  0  0  0  0  0  0
   -9.7560  -15.7080   22.7780 O   0  0  0  0  0  0  0  0  0  0  0  0
  -14.5990  -13.4990   13.5980 C   0  0  0  0  0  0  0  0  0  0  0  0
  -12.0470  -17.1850   20.8580 O   0  0  0  0  0  0  0  0  0  0  0  0
  -13.2510  -14.0360   14.1330 C   0  0  0  0  0  0  0  0  0  0  0  0
  -11.2160  -17.6920   17.4560 O   0  0  0  0  0  0  0  0  0  0  0  0
  -11.0250  -13.4750   14.4270 C   0  0  0  0  0  0  0  0  0  0  0  0
  -13.4870  -17.7970   14.7160 O   0  0  0  0  0  0  0  0  0  0  0  0
  -10.1510  -12.2290   14.6220 C   0  0  0  0  0  0  0  0  0  0  0  0
  -16.9010  -18.7240   14.1580 O   0  0  0  0  0  0  0  0  0  0  0  0
   -9.0230  -10.5380   13.4230 C   0  0  0  0  0  0  0  0  0  0  0  0
  -18.4200  -20.4700   16.9230 O   0  0  0  0  0  0  0  0  0  0  0  0
   -9.0410   -9.8210   12.0830 C   0  0  0  0  0  0  0  0  0  0  0  0
  -16.2370  -22.8670   18.5230 O   0  0  0  0  0  0  0  0  0  0  0  0
   -8.8930  -10.4340    9.8350 C   0  0  0  0  0  0  0  0  0  0  0  0
  -12.7380  -22.0910   18.5750 O   0  0  0  0  0  0  0  0  0  0  0  0
   -7.7680  -10.1360    8.8840 C   0  0  0  0  0  0  0  0  0  0  0  0
   -9.7440  -22.2400   20.2770 O   0  0  0  0  0  0  0  0  0  0  0  0
   -5.6450  -10.9770    8.3160 C   0  0  0  0  0  0  0  0  0  0  0  0
   -6.8230  -22.4740   21.4030 O   0  0  0  0  0  0  0  0  0  0  0  0
   -4.7240  -12.1900    8.5210 C   0  0  0  0  0  0  0  0  0  0  0  0
   -5.5220  -25.8980   21.2950 O   0  0  0  0  0  0  0  0  0  0  0  0
   -3.1280  -11.3980   10.0720 C   0  0  0  0  0  0  0  0  0  0  0  0
   -1.6250  -11.4170   10.3280 C   0  0  0  0  0  0  0  0  0  0  0  0
   -0.8240  -10.6490   12.3690 C   0  0  0  0  0  0  0  0  0  0  0  0
   -0.6670  -11.0220   13.8520 C   0  0  0  0  0  0  0  0  0  0  0  0
   -2.1730  -11.0510   15.7020 C   0  0  0  0  0  0  0  0  0  0  0  0
   -2.6990  -10.0460   16.7310 C   0  0  0  0  0  0  0  0  0  0  0  0
   -4.6970   -9.6300   15.5900 C   0  0  0  0  0  0  0  0  0  0  0  0
   -5.7550   -9.6780   16.6800 C   0  0  0  0  0  0  0  0  0  0  0  0
   -5.6200  -11.8750   17.5110 C   0  0  0  0  0  0  0  0  0  0  0  0
   -6.4480  -13.0490   17.9980 C   0  0  0  0  0  0  0  0  0  0  0  0
   -6.7570  -14.2950   20.0280 C   0  0  0  0  0  0  0  0  0  0  0  0
   -6.1560  -14.5200   21.4230 C   0  0  0  0  0  0  0  0  0  0  0  0
   -8.0890  -13.9390   22.6920 C   0  0  0  0  0  0  0  0  0  0  0  0
   -9.3240  -14.5220   23.4310 C   0  0  0  0  0  0  0  0  0  0  0  0
  -11.1510  -15.9790   22.8360 C   0  0  0  0  0  0  0  0  0  0  0  0
  -11.4160  -17.3440   22.1430 C   0  0  0  0  0  0  0  0  0  0  0  0
  -11.6060  -18.0470   19.8420 C   0  0  0  0  0  0  0  0  0  0  0  0
  -12.1600  -17.5410   18.5270 C   0  0  0  0  0  0  0  0  0  0  0  0
  -11.6920  -17.2760   16.2110 C   0  0  0  0  0  0  0  0  0  0  0  0
  -12.5020  -18.3810   15.5540 C   0  0  0  0  0  0  0  0  0  0  0  0
  -14.4980  -18.7140   14.4220 C   0  0  0  0  0  0  0  0  0  0  0  0
  -15.7360  -17.9450   13.9430 C   0  0  0  0  0  0  0  0  0  0  0  0
  -17.1710  -18.9230   15.5440 C   0  0  0  0  0  0  0  0  0  0  0  0
  -18.4310  -19.8130   15.6550 C   0  0  0  0  0  0  0  0  0  0  0  0
  -17.4550  -21.4890   17.0200 C   0  0  0  0  0  0  0  0  0  0  0  0
  -17.3980  -22.1030   18.3930 C   0  0  0  0  0  0  0  0  0  0  0  0
  -15.0920  -22.0960   18.8340 C   0  0  0  0  0  0  0  0  0  0  0  0
  -13.8570  -22.9390   18.6000 C   0  0  0  0  0  0  0  0  0  0  0  0
  -11.5400  -22.7610   18.7840 C   0  0  0  0  0  0  0  0  0  0  0  0
  -10.4670  -21.7570   19.1530 C   0  0  0  0  0  0  0  0  0  0  0  0
   -8.7570  -21.3230   20.6920 C   0  0  0  0  0  0  0  0  0  0  0  0
   -8.0090  -21.9110   21.9020 C   0  0  0  0  0  0  0  0  0  0  0  0
   -6.6780  -23.8580   21.8290 C   0  0  0  0  0  0  0  0  0  0  0  0
   -5.7300  -24.5570   20.8710 C   0  0  0  0  0  0  0  0  0  0  0  0
  1  3  1  0  0  0  0
  2 25  1  0  0  0  0
  3  5  1  0  0  0  0
  4 29  1  0  0  0  0
  5  7  1  0  0  0  0
  6 33  1  0  0  0  0
  7  9  1  0  0  0  0
  8 37  1  0  0  0  0
  9 11  1  0  0  0  0
 10 41  1  0  0  0  0
 11 13  1  0  0  0  0
 12 45  1  0  0  0  0
 13 15  1  0  0  0  0
 14 49  1  0  0  0  0
 15 17  1  0  0  0  0
 16 51  1  0  0  0  0
 17 19  1  0  0  0  0
 18 53  1  0  0  0  0
 19 21  1  0  0  0  0
 20 55  1  0  0  0  0
 21 23  1  0  0  0  0
 22 57  1  0  0  0  0
  2 23  1  0  0  0  0
 24 59  1  0  0  0  0
 25 27  1  0  0  0  0
 26 61  1  0  0  0  0
  4 27  1  0  0  0  0
 28 63  1  0  0  0  0
 29 31  1  0  0  0  0
 30 65  1  0  0  0  0
  6 31  1  0  0  0  0
 32 67  1  0  0  0  0
 33 35  1  0  0  0  0
 34 69  1  0  0  0  0
  8 35  1  0  0  0  0
 36 71  1  0  0  0  0
 37 39  1  0  0  0  0
 38 73  1  0  0  0  0
 10 39  1  0  0  0  0
 40 75  1  0  0  0  0
 41 43  1  0  0  0  0
 42 77  1  0  0  0  0
 12 43  1  0  0  0  0
 44 79  1  0  0  0  0
 45 47  1  0  0  0  0
 46 81  1  0  0  0  0
 14 47  1  0  0  0  0
 49 50  1  0  0  0  0
 16 50  1  0  0  0  0
 51 52  1  0  0  0  0
 18 52  1  0  0  0  0
 53 54  1  0  0  0  0
 20 54  1  0  0  0  0
 55 56  1  0  0  0  0
 22 56  1  0  0  0  0
 57 58  1  0  0  0  0
 24 58  1  0  0  0  0
 59 60  1  0  0  0  0
 26 60  1  0  0  0  0
 61 62  1  0  0  0  0
 28 62  1  0  0  0  0
 63 64  1  0  0  0  0
 30 64  1  0  0  0  0
 65 66  1  0  0  0  0
 32 66  1  0  0  0  0
 67 68  1  0  0  0  0
 34 68  1  0  0  0  0
 69 70  1  0  0  0  0
 36 70  1  0  0  0  0
 71 72  1  0  0  0  0
 38 72  1  0  0  0  0
 73 74  1  0  0  0  0
 40 74  1  0  0  0  0
 75 76  1  0  0  0  0
 42 76  1  0  0  0  0
 77 78  1  0  0  0  0
 44 78  1  0  0  0  0
 79 80  1  0  0  0  0
 46 80  1  0  0  0  0
 81 82  1  0  0  0  0
 48 82  1  0  0  0  0
M  END
$$$$
