MODEL 1
REMARK VINA RESULT:      -7.1      0.000      0.000
REMARK  Name = human_CD1d_NP40_pred.rank_0
REMARK  35 active torsions:
REMARK  status: ('A' for Active; 'I' for Inactive)
REMARK    1  A    between atoms: O_2  and  C_23
REMARK    2  A    between atoms: O_2  and  C_24
REMARK    3  A    between atoms: C_3  and  C_5
REMARK    4  A    between atoms: O_4  and  C_25
REMARK    5  A    between atoms: O_4  and  C_26
REMARK    6  A    between atoms: C_5  and  C_7
REMARK    7  A    between atoms: O_6  and  C_27
REMARK    8  A    between atoms: O_6  and  C_28
REMARK    9  A    between atoms: C_7  and  C_9
REMARK   10  A    between atoms: O_8  and  C_29
REMARK   11  A    between atoms: O_8  and  C_30
REMARK   12  A    between atoms: C_9  and  C_11
REMARK   13  A    between atoms: O_10  and  C_31
REMARK   14  A    between atoms: O_10  and  C_32
REMARK   15  A    between atoms: C_11  and  C_13
REMARK   16  A    between atoms: O_12  and  C_33
REMARK   17  A    between atoms: O_12  and  C_34
REMARK   18  A    between atoms: C_13  and  C_15
REMARK   19  A    between atoms: O_14  and  C_35
REMARK   20  A    between atoms: O_14  and  C_36
REMARK   21  A    between atoms: C_15  and  C_17
REMARK   22  A    between atoms: O_16  and  C_37
REMARK   23  A    between atoms: O_16  and  C_38
REMARK   24  A    between atoms: C_17  and  C_19
REMARK   25  A    between atoms: O_18  and  C_39
REMARK   26  A    between atoms: O_18  and  C_40
REMARK   27  A    between atoms: C_24  and  C_25
REMARK   28  A    between atoms: C_26  and  C_27
REMARK   29  A    between atoms: C_28  and  C_29
REMARK   30  A    between atoms: C_30  and  C_31
REMARK   31  A    between atoms: C_32  and  C_33
REMARK   32  A    between atoms: C_34  and  C_35
REMARK   33  A    between atoms: C_36  and  C_37
REMARK   34  A    between atoms: C_38  and  C_39
REMARK   35  A    between atoms: C_40  and  C_41
REMARK                            x       y       z     vdW  Elec       q    Type
REMARK                         _______ _______ _______ _____ _____    ______ ____
ROOT
ATOM      1  O   UNL     1     -13.474   4.368  16.999  0.00  0.00    +0.000 OA
ENDROOT
BRANCH   1   2
ATOM      2  C   UNL     1     -12.290   3.863  16.347  0.00  0.00    +0.000 C 
BRANCH   2   3
ATOM      3  C   UNL     1     -12.557   3.682  14.843  0.00  0.00    +0.000 C 
BRANCH   3   4
ATOM      4  O   UNL     1     -11.720   4.593  14.086  0.00  0.00    +0.000 OA
BRANCH   4   5
ATOM      5  C   UNL     1     -10.573   3.908  13.540  0.00  0.00    +0.000 C 
BRANCH   5   6
ATOM      6  C   UNL     1     -10.835   3.558  12.102  0.00  0.00    +0.000 C 
BRANCH   6   7
ATOM      7  O   UNL     1      -9.614   3.809  11.327  0.00  0.00    +0.000 OA
BRANCH   7   8
ATOM      8  C   UNL     1      -9.735   4.826  10.335  0.00  0.00    +0.000 C 
BRANCH   8   9
ATOM      9  C   UNL     1      -9.070   4.382   9.025  0.00  0.00    +0.000 C 
BRANCH   9  10
ATOM     10  O   UNL     1      -9.508   5.265   7.938  0.00  0.00    +0.000 OA
BRANCH  10  11
ATOM     11  C   UNL     1     -10.957   5.492   7.971  0.00  0.00    +0.000 C 
BRANCH  11  12
ATOM     12  C   UNL     1     -11.633   4.721   6.822  0.00  0.00    +0.000 C 
BRANCH  12  13
ATOM     13  O   UNL     1     -12.910   4.163   7.285  0.00  0.00    +0.000 OA
BRANCH  13  14
ATOM     14  C   UNL     1     -13.611   3.452   6.231  0.00  0.00    +0.000 C 
BRANCH  14  15
ATOM     15  C   UNL     1     -14.290   2.170   6.823  0.00  0.00    +0.000 C 
BRANCH  15  16
ATOM     16  O   UNL     1     -14.217   2.217   8.279  0.00  0.00    +0.000 OA
BRANCH  16  17
ATOM     17  C   UNL     1     -15.394   1.683   8.901  0.00  0.00    +0.000 C 
BRANCH  17  18
ATOM     18  C   UNL     1     -15.153   0.242   9.357  0.00  0.00    +0.000 C 
BRANCH  18  19
ATOM     19  O   UNL     1     -14.551   0.211  10.686  0.00  0.00    +0.000 OA
BRANCH  19  20
ATOM     20  C   UNL     1     -15.373  -0.508  11.602  0.00  0.00    +0.000 C 
BRANCH  20  22
ATOM     21  O   UNL     1     -13.353  -1.792  11.802  0.00  0.00    +0.000 OA
ATOM     22  C   UNL     1     -14.538  -1.415  12.496  0.00  0.00    +0.000 C 
ENDBRANCH  20  22
ENDBRANCH  19  20
ENDBRANCH  18  19
ENDBRANCH  17  18
ENDBRANCH  16  17
ENDBRANCH  15  16
ENDBRANCH  14  15
ENDBRANCH  13  14
ENDBRANCH  12  13
ENDBRANCH  11  12
ENDBRANCH  10  11
ENDBRANCH   9  10
ENDBRANCH   8   9
ENDBRANCH   7   8
ENDBRANCH   6   7
ENDBRANCH   5   6
ENDBRANCH   4   5
ENDBRANCH   3   4
ENDBRANCH   2   3
ENDBRANCH   1   2
BRANCH   1  23
ATOM     23  C   UNL     1     -13.428   4.168  18.438  0.00  0.00    +0.000 C 
BRANCH  23  24
ATOM     24  C   UNL     1     -12.101   3.538  18.816  0.00  0.00    +0.000 C 
BRANCH  24  25
ATOM     25  O   UNL     1     -11.595   4.197  20.004  0.00  0.00    +0.000 OA
BRANCH  25  26
ATOM     26  C   UNL     1     -10.525   3.481  20.672  0.00  0.00    +0.000 C 
BRANCH  26  27
ATOM     27  C   UNL     1      -9.404   4.470  21.057  0.00  0.00    +0.000 C 
BRANCH  27  28
ATOM     28  O   UNL     1      -8.138   3.971  20.598  0.00  0.00    +0.000 OA
BRANCH  28  32
ATOM     29  C   UNL     1      -4.822   5.312  22.750  0.00  0.00    +0.000 A 
ATOM     30  C   UNL     1      -4.738   4.221  21.927  0.00  0.00    +0.000 A 
ATOM     31  C   UNL     1      -5.845   3.788  21.230  0.00  0.00    +0.000 A 
ATOM     32  C   UNL     1      -7.055   4.467  21.335  0.00  0.00    +0.000 A 
ATOM     33  C   UNL     1      -7.120   5.513  22.179  0.00  0.00    +0.000 A 
ATOM     34  C   UNL     1      -6.016   5.947  22.884  0.00  0.00    +0.000 A 
BRANCH  29  35
ATOM     35  C   UNL     1      -3.603   5.769  23.499  0.00  0.00    +0.000 C 
BRANCH  35  36
ATOM     36  C   UNL     1      -2.607   4.625  23.637  0.00  0.00    +0.000 C 
BRANCH  36  37
ATOM     37  C   UNL     1      -2.308   4.353  25.110  0.00  0.00    +0.000 C 
BRANCH  37  38
ATOM     38  C   UNL     1      -0.846   4.549  25.488  0.00  0.00    +0.000 C 
BRANCH  38  39
ATOM     39  C   UNL     1      -0.692   5.752  26.452  0.00  0.00    +0.000 C 
BRANCH  39  40
ATOM     40  C   UNL     1       0.501   6.608  26.041  0.00  0.00    +0.000 C 
BRANCH  40  41
ATOM     41  C   UNL     1       0.710   6.571  24.542  0.00  0.00    +0.000 C 
BRANCH  41  43
ATOM     42  C   UNL     1       0.806   9.071  24.506  0.00  0.00    +0.000 C 
ATOM     43  C   UNL     1       0.121   7.842  23.929  0.00  0.00    +0.000 C 
ENDBRANCH  41  43
ENDBRANCH  40  41
ENDBRANCH  39  40
ENDBRANCH  38  39
ENDBRANCH  37  38
ENDBRANCH  36  37
ENDBRANCH  35  36
ENDBRANCH  29  35
ENDBRANCH  28  32
ENDBRANCH  27  28
ENDBRANCH  26  27
ENDBRANCH  25  26
ENDBRANCH  24  25
ENDBRANCH  23  24
ENDBRANCH   1  23
TORSDOF 35
ENDMDL
MODEL 2
REMARK VINA RESULT:      -6.9      4.517     14.744
REMARK  Name = human_CD1d_NP40_pred.rank_0
REMARK  35 active torsions:
REMARK  status: ('A' for Active; 'I' for Inactive)
REMARK    1  A    between atoms: O_2  and  C_23
REMARK    2  A    between atoms: O_2  and  C_24
REMARK    3  A    between atoms: C_3  and  C_5
REMARK    4  A    between atoms: O_4  and  C_25
REMARK    5  A    between atoms: O_4  and  C_26
REMARK    6  A    between atoms: C_5  and  C_7
REMARK    7  A    between atoms: O_6  and  C_27
REMARK    8  A    between atoms: O_6  and  C_28
REMARK    9  A    between atoms: C_7  and  C_9
REMARK   10  A    between atoms: O_8  and  C_29
REMARK   11  A    between atoms: O_8  and  C_30
REMARK   12  A    between atoms: C_9  and  C_11
REMARK   13  A    between atoms: O_10  and  C_31
REMARK   14  A    between atoms: O_10  and  C_32
REMARK   15  A    between atoms: C_11  and  C_13
REMARK   16  A    between atoms: O_12  and  C_33
REMARK   17  A    between atoms: O_12  and  C_34
REMARK   18  A    between atoms: C_13  and  C_15
REMARK   19  A    between atoms: O_14  and  C_35
REMARK   20  A    between atoms: O_14  and  C_36
REMARK   21  A    between atoms: C_15  and  C_17
REMARK   22  A    between atoms: O_16  and  C_37
REMARK   23  A    between atoms: O_16  and  C_38
REMARK   24  A    between atoms: C_17  and  C_19
REMARK   25  A    between atoms: O_18  and  C_39
REMARK   26  A    between atoms: O_18  and  C_40
REMARK   27  A    between atoms: C_24  and  C_25
REMARK   28  A    between atoms: C_26  and  C_27
REMARK   29  A    between atoms: C_28  and  C_29
REMARK   30  A    between atoms: C_30  and  C_31
REMARK   31  A    between atoms: C_32  and  C_33
REMARK   32  A    between atoms: C_34  and  C_35
REMARK   33  A    between atoms: C_36  and  C_37
REMARK   34  A    between atoms: C_38  and  C_39
REMARK   35  A    between atoms: C_40  and  C_41
REMARK                            x       y       z     vdW  Elec       q    Type
REMARK                         _______ _______ _______ _____ _____    ______ ____
ROOT
ATOM      1  O   UNL     1     -14.494   8.204  22.424  0.00  0.00    +0.000 OA
ENDROOT
BRANCH   1   2
ATOM      2  C   UNL     1     -13.110   8.400  22.784  0.00  0.00    +0.000 C 
BRANCH   2   3
ATOM      3  C   UNL     1     -12.205   8.065  21.587  0.00  0.00    +0.000 C 
BRANCH   3   4
ATOM      4  O   UNL     1     -10.869   8.579  21.826  0.00  0.00    +0.000 OA
BRANCH   4   5
ATOM      5  C   UNL     1      -9.880   7.539  21.674  0.00  0.00    +0.000 C 
BRANCH   5   6
ATOM      6  C   UNL     1      -9.858   6.683  22.910  0.00  0.00    +0.000 C 
BRANCH   6   7
ATOM      7  O   UNL     1      -9.481   5.317  22.528  0.00  0.00    +0.000 OA
BRANCH   7   8
ATOM      8  C   UNL     1      -8.436   5.234  21.562  0.00  0.00    +0.000 C 
BRANCH   8   9
ATOM      9  C   UNL     1      -8.537   3.922  20.771  0.00  0.00    +0.000 C 
BRANCH   9  10
ATOM     10  O   UNL     1      -7.318   3.134  20.987  0.00  0.00    +0.000 OA
BRANCH  10  11
ATOM     11  C   UNL     1      -6.263   3.927  21.628  0.00  0.00    +0.000 C 
BRANCH  11  12
ATOM     12  C   UNL     1      -5.570   3.089  22.719  0.00  0.00    +0.000 C 
BRANCH  12  13
ATOM     13  O   UNL     1      -4.222   3.617  22.965  0.00  0.00    +0.000 OA
BRANCH  13  14
ATOM     14  C   UNL     1      -4.187   4.520  24.102  0.00  0.00    +0.000 C 
BRANCH  14  15
ATOM     15  C   UNL     1      -2.865   5.359  24.067  0.00  0.00    +0.000 C 
BRANCH  15  16
ATOM     16  O   UNL     1      -2.241   5.327  25.385  0.00  0.00    +0.000 OA
BRANCH  16  17
ATOM     17  C   UNL     1      -0.815   5.463  25.317  0.00  0.00    +0.000 C 
BRANCH  17  18
ATOM     18  C   UNL     1      -0.363   5.644  23.866  0.00  0.00    +0.000 C 
BRANCH  18  19
ATOM     19  O   UNL     1       0.654   6.686  23.765  0.00  0.00    +0.000 OA
BRANCH  19  20
ATOM     20  C   UNL     1       0.179   7.918  24.302  0.00  0.00    +0.000 C 
BRANCH  20  22
ATOM     21  O   UNL     1       2.025   9.424  24.604  0.00  0.00    +0.000 OA
ATOM     22  C   UNL     1       0.948   9.102  23.730  0.00  0.00    +0.000 C 
ENDBRANCH  20  22
ENDBRANCH  19  20
ENDBRANCH  18  19
ENDBRANCH  17  18
ENDBRANCH  16  17
ENDBRANCH  15  16
ENDBRANCH  14  15
ENDBRANCH  13  14
ENDBRANCH  12  13
ENDBRANCH  11  12
ENDBRANCH  10  11
ENDBRANCH   9  10
ENDBRANCH   8   9
ENDBRANCH   7   8
ENDBRANCH   6   7
ENDBRANCH   5   6
ENDBRANCH   4   5
ENDBRANCH   3   4
ENDBRANCH   2   3
ENDBRANCH   1   2
BRANCH   1  23
ATOM     23  C   UNL     1     -15.089   9.414  21.881  0.00  0.00    +0.000 C 
BRANCH  23  24
ATOM     24  C   UNL     1     -15.790   9.089  20.576  0.00  0.00    +0.000 C 
BRANCH  24  25
ATOM     25  O   UNL     1     -14.939   8.209  19.798  0.00  0.00    +0.000 OA
BRANCH  25  26
ATOM     26  C   UNL     1     -15.658   7.337  18.889  0.00  0.00    +0.000 C 
BRANCH  26  27
ATOM     27  C   UNL     1     -15.091   5.905  18.991  0.00  0.00    +0.000 C 
BRANCH  27  28
ATOM     28  O   UNL     1     -15.318   5.204  17.758  0.00  0.00    +0.000 OA
BRANCH  28  32
ATOM     29  C   UNL     1     -11.884   3.658  15.957  0.00  0.00    +0.000 A 
ATOM     30  C   UNL     1     -12.853   4.282  15.217  0.00  0.00    +0.000 A 
ATOM     31  C   UNL     1     -13.983   4.780  15.827  0.00  0.00    +0.000 A 
ATOM     32  C   UNL     1     -14.145   4.675  17.206  0.00  0.00    +0.000 A 
ATOM     33  C   UNL     1     -13.196   4.025  17.904  0.00  0.00    +0.000 A 
ATOM     34  C   UNL     1     -12.065   3.520  17.296  0.00  0.00    +0.000 A 
BRANCH  29  35
ATOM     35  C   UNL     1     -10.659   3.125  15.272  0.00  0.00    +0.000 C 
BRANCH  35  36
ATOM     36  C   UNL     1     -10.299   3.998  14.076  0.00  0.00    +0.000 C 
BRANCH  36  37
ATOM     37  C   UNL     1     -10.196   3.150  12.810  0.00  0.00    +0.000 C 
BRANCH  37  38
ATOM     38  C   UNL     1     -11.542   2.733  12.235  0.00  0.00    +0.000 C 
BRANCH  38  39
ATOM     39  C   UNL     1     -12.001   1.387  12.849  0.00  0.00    +0.000 C 
BRANCH  39  40
ATOM     40  C   UNL     1     -13.509   1.219  12.686  0.00  0.00    +0.000 C 
BRANCH  40  41
ATOM     41  C   UNL     1     -14.094   0.408  13.822  0.00  0.00    +0.000 C 
BRANCH  41  43
ATOM     42  C   UNL     1     -13.320   0.154  16.189  0.00  0.00    +0.000 C 
ATOM     43  C   UNL     1     -12.957  -0.067  14.728  0.00  0.00    +0.000 C 
ENDBRANCH  41  43
ENDBRANCH  40  41
ENDBRANCH  39  40
ENDBRANCH  38  39
ENDBRANCH  37  38
ENDBRANCH  36  37
ENDBRANCH  35  36
ENDBRANCH  29  35
ENDBRANCH  28  32
ENDBRANCH  27  28
ENDBRANCH  26  27
ENDBRANCH  25  26
ENDBRANCH  24  25
ENDBRANCH  23  24
ENDBRANCH   1  23
TORSDOF 35
ENDMDL
MODEL 3
REMARK VINA RESULT:      -6.9      1.373      3.771
REMARK  Name = human_CD1d_NP40_pred.rank_0
REMARK  35 active torsions:
REMARK  status: ('A' for Active; 'I' for Inactive)
REMARK    1  A    between atoms: O_2  and  C_23
REMARK    2  A    between atoms: O_2  and  C_24
REMARK    3  A    between atoms: C_3  and  C_5
REMARK    4  A    between atoms: O_4  and  C_25
REMARK    5  A    between atoms: O_4  and  C_26
REMARK    6  A    between atoms: C_5  and  C_7
REMARK    7  A    between atoms: O_6  and  C_27
REMARK    8  A    between atoms: O_6  and  C_28
REMARK    9  A    between atoms: C_7  and  C_9
REMARK   10  A    between atoms: O_8  and  C_29
REMARK   11  A    between atoms: O_8  and  C_30
REMARK   12  A    between atoms: C_9  and  C_11
REMARK   13  A    between atoms: O_10  and  C_31
REMARK   14  A    between atoms: O_10  and  C_32
REMARK   15  A    between atoms: C_11  and  C_13
REMARK   16  A    between atoms: O_12  and  C_33
REMARK   17  A    between atoms: O_12  and  C_34
REMARK   18  A    between atoms: C_13  and  C_15
REMARK   19  A    between atoms: O_14  and  C_35
REMARK   20  A    between atoms: O_14  and  C_36
REMARK   21  A    between atoms: C_15  and  C_17
REMARK   22  A    between atoms: O_16  and  C_37
REMARK   23  A    between atoms: O_16  and  C_38
REMARK   24  A    between atoms: C_17  and  C_19
REMARK   25  A    between atoms: O_18  and  C_39
REMARK   26  A    between atoms: O_18  and  C_40
REMARK   27  A    between atoms: C_24  and  C_25
REMARK   28  A    between atoms: C_26  and  C_27
REMARK   29  A    between atoms: C_28  and  C_29
REMARK   30  A    between atoms: C_30  and  C_31
REMARK   31  A    between atoms: C_32  and  C_33
REMARK   32  A    between atoms: C_34  and  C_35
REMARK   33  A    between atoms: C_36  and  C_37
REMARK   34  A    between atoms: C_38  and  C_39
REMARK   35  A    between atoms: C_40  and  C_41
REMARK                            x       y       z     vdW  Elec       q    Type
REMARK                         _______ _______ _______ _____ _____    ______ ____
ROOT
ATOM      1  O   UNL     1     -12.963   4.175  17.213  0.00  0.00    +0.000 OA
ENDROOT
BRANCH   1   2
ATOM      2  C   UNL     1     -12.608   3.273  16.144  0.00  0.00    +0.000 C 
BRANCH   2   3
ATOM      3  C   UNL     1     -11.999   4.063  14.973  0.00  0.00    +0.000 C 
BRANCH   3   4
ATOM      4  O   UNL     1     -11.032   3.235  14.276  0.00  0.00    +0.000 OA
BRANCH   4   5
ATOM      5  C   UNL     1     -11.130   3.418  12.848  0.00  0.00    +0.000 C 
BRANCH   5   6
ATOM      6  C   UNL     1     -12.049   2.378  12.271  0.00  0.00    +0.000 C 
BRANCH   6   7
ATOM      7  O   UNL     1     -11.839   1.116  12.989  0.00  0.00    +0.000 OA
BRANCH   7   8
ATOM      8  C   UNL     1     -13.035   0.435  13.362  0.00  0.00    +0.000 C 
BRANCH   8   9
ATOM      9  C   UNL     1     -13.560  -0.411  12.194  0.00  0.00    +0.000 C 
BRANCH   9  10
ATOM     10  O   UNL     1     -14.855   0.123  11.756  0.00  0.00    +0.000 OA
BRANCH  10  11
ATOM     11  C   UNL     1     -15.507  -0.760  10.780  0.00  0.00    +0.000 C 
BRANCH  11  12
ATOM     12  C   UNL     1     -15.270  -0.226   9.355  0.00  0.00    +0.000 C 
BRANCH  12  13
ATOM     13  O   UNL     1     -16.079   0.981   9.140  0.00  0.00    +0.000 OA
BRANCH  13  14
ATOM     14  C   UNL     1     -15.537   1.823   8.089  0.00  0.00    +0.000 C 
BRANCH  14  15
ATOM     15  C   UNL     1     -14.127   1.288   7.661  0.00  0.00    +0.000 C 
BRANCH  15  16
ATOM     16  O   UNL     1     -13.708   1.964   6.439  0.00  0.00    +0.000 OA
BRANCH  16  17
ATOM     17  C   UNL     1     -14.541   3.088   6.124  0.00  0.00    +0.000 C 
BRANCH  17  18
ATOM     18  C   UNL     1     -13.741   4.390   6.214  0.00  0.00    +0.000 C 
BRANCH  18  19
ATOM     19  O   UNL     1     -13.738   4.904   7.580  0.00  0.00    +0.000 OA
BRANCH  19  20
ATOM     20  C   UNL     1     -12.416   5.233   8.000  0.00  0.00    +0.000 C 
BRANCH  20  22
ATOM     21  O   UNL     1     -10.471   3.824   7.940  0.00  0.00    +0.000 OA
ATOM     22  C   UNL     1     -11.714   4.024   8.606  0.00  0.00    +0.000 C 
ENDBRANCH  20  22
ENDBRANCH  19  20
ENDBRANCH  18  19
ENDBRANCH  17  18
ENDBRANCH  16  17
ENDBRANCH  15  16
ENDBRANCH  14  15
ENDBRANCH  13  14
ENDBRANCH  12  13
ENDBRANCH  11  12
ENDBRANCH  10  11
ENDBRANCH   9  10
ENDBRANCH   8   9
ENDBRANCH   7   8
ENDBRANCH   6   7
ENDBRANCH   5   6
ENDBRANCH   4   5
ENDBRANCH   3   4
ENDBRANCH   2   3
ENDBRANCH   1   2
BRANCH   1  23
ATOM     23  C   UNL     1     -12.741   3.579  18.521  0.00  0.00    +0.000 C 
BRANCH  23  24
ATOM     24  C   UNL     1     -13.205   4.541  19.597  0.00  0.00    +0.000 C 
BRANCH  24  25
ATOM     25  O   UNL     1     -12.054   4.963  20.371  0.00  0.00    +0.000 OA
BRANCH  25  26
ATOM     26  C   UNL     1     -11.275   3.871  20.923  0.00  0.00    +0.000 C 
BRANCH  26  27
ATOM     27  C   UNL     1      -9.784   4.266  20.955  0.00  0.00    +0.000 C 
BRANCH  27  28
ATOM     28  O   UNL     1      -9.636   5.556  21.569  0.00  0.00    +0.000 OA
BRANCH  28  32
ATOM     29  C   UNL     1      -5.669   6.211  22.693  0.00  0.00    +0.000 A 
ATOM     30  C   UNL     1      -6.075   4.999  22.202  0.00  0.00    +0.000 A 
ATOM     31  C   UNL     1      -7.390   4.798  21.843  0.00  0.00    +0.000 A 
ATOM     32  C   UNL     1      -8.317   5.830  21.953  0.00  0.00    +0.000 A 
ATOM     33  C   UNL     1      -7.900   7.000  22.473  0.00  0.00    +0.000 A 
ATOM     34  C   UNL     1      -6.586   7.203  22.840  0.00  0.00    +0.000 A 
BRANCH  29  35
ATOM     35  C   UNL     1      -4.230   6.409  23.076  0.00  0.00    +0.000 C 
BRANCH  35  36
ATOM     36  C   UNL     1      -3.350   5.386  22.372  0.00  0.00    +0.000 C 
BRANCH  36  37
ATOM     37  C   UNL     1      -2.267   4.873  23.319  0.00  0.00    +0.000 C 
BRANCH  37  38
ATOM     38  C   UNL     1      -2.171   5.651  24.625  0.00  0.00    +0.000 C 
BRANCH  38  39
ATOM     39  C   UNL     1      -0.923   5.210  25.428  0.00  0.00    +0.000 C 
BRANCH  39  40
ATOM     40  C   UNL     1      -0.004   6.403  25.673  0.00  0.00    +0.000 C 
BRANCH  40  41
ATOM     41  C   UNL     1       0.351   7.095  24.374  0.00  0.00    +0.000 C 
BRANCH  41  43
ATOM     42  C   UNL     1       1.527   9.303  24.302  0.00  0.00    +0.000 C 
ATOM     43  C   UNL     1       0.199   8.606  24.561  0.00  0.00    +0.000 C 
ENDBRANCH  41  43
ENDBRANCH  40  41
ENDBRANCH  39  40
ENDBRANCH  38  39
ENDBRANCH  37  38
ENDBRANCH  36  37
ENDBRANCH  35  36
ENDBRANCH  29  35
ENDBRANCH  28  32
ENDBRANCH  27  28
ENDBRANCH  26  27
ENDBRANCH  25  26
ENDBRANCH  24  25
ENDBRANCH  23  24
ENDBRANCH   1  23
TORSDOF 35
ENDMDL
MODEL 4
REMARK VINA RESULT:      -6.9      3.013      5.713
REMARK  Name = human_CD1d_NP40_pred.rank_0
REMARK  35 active torsions:
REMARK  status: ('A' for Active; 'I' for Inactive)
REMARK    1  A    between atoms: O_2  and  C_23
REMARK    2  A    between atoms: O_2  and  C_24
REMARK    3  A    between atoms: C_3  and  C_5
REMARK    4  A    between atoms: O_4  and  C_25
REMARK    5  A    between atoms: O_4  and  C_26
REMARK    6  A    between atoms: C_5  and  C_7
REMARK    7  A    between atoms: O_6  and  C_27
REMARK    8  A    between atoms: O_6  and  C_28
REMARK    9  A    between atoms: C_7  and  C_9
REMARK   10  A    between atoms: O_8  and  C_29
REMARK   11  A    between atoms: O_8  and  C_30
REMARK   12  A    between atoms: C_9  and  C_11
REMARK   13  A    between atoms: O_10  and  C_31
REMARK   14  A    between atoms: O_10  and  C_32
REMARK   15  A    between atoms: C_11  and  C_13
REMARK   16  A    between atoms: O_12  and  C_33
REMARK   17  A    between atoms: O_12  and  C_34
REMARK   18  A    between atoms: C_13  and  C_15
REMARK   19  A    between atoms: O_14  and  C_35
REMARK   20  A    between atoms: O_14  and  C_36
REMARK   21  A    between atoms: C_15  and  C_17
REMARK   22  A    between atoms: O_16  and  C_37
REMARK   23  A    between atoms: O_16  and  C_38
REMARK   24  A    between atoms: C_17  and  C_19
REMARK   25  A    between atoms: O_18  and  C_39
REMARK   26  A    between atoms: O_18  and  C_40
REMARK   27  A    between atoms: C_24  and  C_25
REMARK   28  A    between atoms: C_26  and  C_27
REMARK   29  A    between atoms: C_28  and  C_29
REMARK   30  A    between atoms: C_30  and  C_31
REMARK   31  A    between atoms: C_32  and  C_33
REMARK   32  A    between atoms: C_34  and  C_35
REMARK   33  A    between atoms: C_36  and  C_37
REMARK   34  A    between atoms: C_38  and  C_39
REMARK   35  A    between atoms: C_40  and  C_41
REMARK                            x       y       z     vdW  Elec       q    Type
REMARK                         _______ _______ _______ _____ _____    ______ ____
ROOT
ATOM      1  O   UNL     1     -15.370   6.593  18.413  0.00  0.00    +0.000 OA
ENDROOT
BRANCH   1   2
ATOM      2  C   UNL     1     -15.278   5.237  18.898  0.00  0.00    +0.000 C 
BRANCH   2   3
ATOM      3  C   UNL     1     -14.611   4.345  17.837  0.00  0.00    +0.000 C 
BRANCH   3   4
ATOM      4  O   UNL     1     -13.276   3.983  18.274  0.00  0.00    +0.000 OA
BRANCH   4   5
ATOM      5  C   UNL     1     -12.467   3.551  17.159  0.00  0.00    +0.000 C 
BRANCH   5   6
ATOM      6  C   UNL     1     -13.275   3.629  15.894  0.00  0.00    +0.000 C 
BRANCH   6   7
ATOM      7  O   UNL     1     -13.236   2.320  15.230  0.00  0.00    +0.000 OA
BRANCH   7   8
ATOM      8  C   UNL     1     -11.929   1.853  14.907  0.00  0.00    +0.000 C 
BRANCH   8   9
ATOM      9  C   UNL     1     -11.801   1.616  13.395  0.00  0.00    +0.000 C 
BRANCH   9  10
ATOM     10  O   UNL     1     -11.924   2.899  12.694  0.00  0.00    +0.000 OA
BRANCH  10  11
ATOM     11  C   UNL     1     -10.909   3.862  13.136  0.00  0.00    +0.000 C 
BRANCH  11  12
ATOM     12  C   UNL     1      -9.689   3.802  12.197  0.00  0.00    +0.000 C 
BRANCH  12  13
ATOM     13  O   UNL     1      -9.073   5.132  12.103  0.00  0.00    +0.000 OA
BRANCH  13  14
ATOM     14  C   UNL     1      -8.717   5.474  10.738  0.00  0.00    +0.000 C 
BRANCH  14  15
ATOM     15  C   UNL     1      -9.857   5.015   9.765  0.00  0.00    +0.000 C 
BRANCH  15  16
ATOM     16  O   UNL     1      -9.267   4.319   8.628  0.00  0.00    +0.000 OA
BRANCH  16  17
ATOM     17  C   UNL     1     -10.135   4.307   7.486  0.00  0.00    +0.000 C 
BRANCH  17  18
ATOM     18  C   UNL     1     -11.595   4.174   7.924  0.00  0.00    +0.000 C 
BRANCH  18  19
ATOM     19  O   UNL     1     -12.496   4.655   6.881  0.00  0.00    +0.000 OA
BRANCH  19  20
ATOM     20  C   UNL     1     -13.853   4.364   7.203  0.00  0.00    +0.000 C 
BRANCH  20  22
ATOM     21  O   UNL     1     -14.711   2.121   7.279  0.00  0.00    +0.000 OA
ATOM     22  C   UNL     1     -14.370   3.182   6.393  0.00  0.00    +0.000 C 
ENDBRANCH  20  22
ENDBRANCH  19  20
ENDBRANCH  18  19
ENDBRANCH  17  18
ENDBRANCH  16  17
ENDBRANCH  15  16
ENDBRANCH  14  15
ENDBRANCH  13  14
ENDBRANCH  12  13
ENDBRANCH  11  12
ENDBRANCH  10  11
ENDBRANCH   9  10
ENDBRANCH   8   9
ENDBRANCH   7   8
ENDBRANCH   6   7
ENDBRANCH   5   6
ENDBRANCH   4   5
ENDBRANCH   3   4
ENDBRANCH   2   3
ENDBRANCH   1   2
BRANCH   1  23
ATOM     23  C   UNL     1     -15.115   7.564  19.465  0.00  0.00    +0.000 C 
BRANCH  23  24
ATOM     24  C   UNL     1     -14.623   6.843  20.705  0.00  0.00    +0.000 C 
BRANCH  24  25
ATOM     25  O   UNL     1     -13.270   7.279  20.990  0.00  0.00    +0.000 OA
BRANCH  25  26
ATOM     26  C   UNL     1     -13.178   8.304  22.011  0.00  0.00    +0.000 C 
BRANCH  26  27
ATOM     27  C   UNL     1     -12.237   7.827  23.138  0.00  0.00    +0.000 C 
BRANCH  27  28
ATOM     28  O   UNL     1     -11.490   6.683  22.696  0.00  0.00    +0.000 OA
BRANCH  28  32
ATOM     29  C   UNL     1      -7.356   7.173  22.993  0.00  0.00    +0.000 A 
ATOM     30  C   UNL     1      -8.022   6.282  23.791  0.00  0.00    +0.000 A 
ATOM     31  C   UNL     1      -9.388   6.139  23.684  0.00  0.00    +0.000 A 
ATOM     32  C   UNL     1     -10.105   6.880  22.749  0.00  0.00    +0.000 A 
ATOM     33  C   UNL     1      -9.431   7.775  22.004  0.00  0.00    +0.000 A 
ATOM     34  C   UNL     1      -8.063   7.926  22.112  0.00  0.00    +0.000 A 
BRANCH  29  35
ATOM     35  C   UNL     1      -5.866   7.310  23.124  0.00  0.00    +0.000 C 
BRANCH  35  36
ATOM     36  C   UNL     1      -5.247   5.986  23.552  0.00  0.00    +0.000 C 
BRANCH  36  37
ATOM     37  C   UNL     1      -4.359   5.430  22.442  0.00  0.00    +0.000 C 
BRANCH  37  38
ATOM     38  C   UNL     1      -4.605   3.959  22.134  0.00  0.00    +0.000 C 
BRANCH  38  39
ATOM     39  C   UNL     1      -5.602   3.351  23.153  0.00  0.00    +0.000 C 
BRANCH  39  40
ATOM     40  C   UNL     1      -6.565   2.402  22.447  0.00  0.00    +0.000 C 
BRANCH  40  41
ATOM     41  C   UNL     1      -7.053   2.991  21.141  0.00  0.00    +0.000 C 
BRANCH  41  43
ATOM     42  C   UNL     1      -8.829   4.516  20.255  0.00  0.00    +0.000 C 
ATOM     43  C   UNL     1      -8.485   3.496  21.330  0.00  0.00    +0.000 C 
ENDBRANCH  41  43
ENDBRANCH  40  41
ENDBRANCH  39  40
ENDBRANCH  38  39
ENDBRANCH  37  38
ENDBRANCH  36  37
ENDBRANCH  35  36
ENDBRANCH  29  35
ENDBRANCH  28  32
ENDBRANCH  27  28
ENDBRANCH  26  27
ENDBRANCH  25  26
ENDBRANCH  24  25
ENDBRANCH  23  24
ENDBRANCH   1  23
TORSDOF 35
ENDMDL
MODEL 5
REMARK VINA RESULT:      -6.9      2.267      5.107
REMARK  Name = human_CD1d_NP40_pred.rank_0
REMARK  35 active torsions:
REMARK  status: ('A' for Active; 'I' for Inactive)
REMARK    1  A    between atoms: O_2  and  C_23
REMARK    2  A    between atoms: O_2  and  C_24
REMARK    3  A    between atoms: C_3  and  C_5
REMARK    4  A    between atoms: O_4  and  C_25
REMARK    5  A    between atoms: O_4  and  C_26
REMARK    6  A    between atoms: C_5  and  C_7
REMARK    7  A    between atoms: O_6  and  C_27
REMARK    8  A    between atoms: O_6  and  C_28
REMARK    9  A    between atoms: C_7  and  C_9
REMARK   10  A    between atoms: O_8  and  C_29
REMARK   11  A    between atoms: O_8  and  C_30
REMARK   12  A    between atoms: C_9  and  C_11
REMARK   13  A    between atoms: O_10  and  C_31
REMARK   14  A    between atoms: O_10  and  C_32
REMARK   15  A    between atoms: C_11  and  C_13
REMARK   16  A    between atoms: O_12  and  C_33
REMARK   17  A    between atoms: O_12  and  C_34
REMARK   18  A    between atoms: C_13  and  C_15
REMARK   19  A    between atoms: O_14  and  C_35
REMARK   20  A    between atoms: O_14  and  C_36
REMARK   21  A    between atoms: C_15  and  C_17
REMARK   22  A    between atoms: O_16  and  C_37
REMARK   23  A    between atoms: O_16  and  C_38
REMARK   24  A    between atoms: C_17  and  C_19
REMARK   25  A    between atoms: O_18  and  C_39
REMARK   26  A    between atoms: O_18  and  C_40
REMARK   27  A    between atoms: C_24  and  C_25
REMARK   28  A    between atoms: C_26  and  C_27
REMARK   29  A    between atoms: C_28  and  C_29
REMARK   30  A    between atoms: C_30  and  C_31
REMARK   31  A    between atoms: C_32  and  C_33
REMARK   32  A    between atoms: C_34  and  C_35
REMARK   33  A    between atoms: C_36  and  C_37
REMARK   34  A    between atoms: C_38  and  C_39
REMARK   35  A    between atoms: C_40  and  C_41
REMARK                            x       y       z     vdW  Elec       q    Type
REMARK                         _______ _______ _______ _____ _____    ______ ____
ROOT
ATOM      1  O   UNL     1     -14.174   5.285  16.998  0.00  0.00    +0.000 OA
ENDROOT
BRANCH   1   2
ATOM      2  C   UNL     1     -13.798   3.956  16.581  0.00  0.00    +0.000 C 
BRANCH   2   3
ATOM      3  C   UNL     1     -12.400   3.983  15.940  0.00  0.00    +0.000 C 
BRANCH   3   4
ATOM      4  O   UNL     1     -12.470   3.451  14.593  0.00  0.00    +0.000 OA
BRANCH   4   5
ATOM      5  C   UNL     1     -12.053   2.070  14.561  0.00  0.00    +0.000 C 
BRANCH   5   6
ATOM      6  C   UNL     1     -11.445   1.760  13.221  0.00  0.00    +0.000 C 
BRANCH   6   7
ATOM      7  O   UNL     1     -12.263   0.735  12.561  0.00  0.00    +0.000 OA
BRANCH   7   8
ATOM      8  C   UNL     1     -12.808  -0.249  13.435  0.00  0.00    +0.000 C 
BRANCH   8   9
ATOM      9  C   UNL     1     -13.398  -1.416  12.632  0.00  0.00    +0.000 C 
BRANCH   9  10
ATOM     10  O   UNL     1     -14.807  -1.595  13.003  0.00  0.00    +0.000 OA
BRANCH  10  11
ATOM     11  C   UNL     1     -15.671  -0.603  12.352  0.00  0.00    +0.000 C 
BRANCH  11  12
ATOM     12  C   UNL     1     -15.237  -0.413  10.887  0.00  0.00    +0.000 C 
BRANCH  12  13
ATOM     13  O   UNL     1     -15.825   0.823  10.355  0.00  0.00    +0.000 OA
BRANCH  13  14
ATOM     14  C   UNL     1     -15.819   0.850   8.903  0.00  0.00    +0.000 C 
BRANCH  14  15
ATOM     15  C   UNL     1     -15.279   2.234   8.404  0.00  0.00    +0.000 C 
BRANCH  15  16
ATOM     16  O   UNL     1     -13.980   2.043   7.770  0.00  0.00    +0.000 OA
BRANCH  16  17
ATOM     17  C   UNL     1     -13.834   2.826   6.578  0.00  0.00    +0.000 C 
BRANCH  17  18
ATOM     18  C   UNL     1     -14.116   4.302   6.868  0.00  0.00    +0.000 C 
BRANCH  18  19
ATOM     19  O   UNL     1     -12.938   4.956   7.427  0.00  0.00    +0.000 OA
BRANCH  19  20
ATOM     20  C   UNL     1     -11.776   4.662   6.656  0.00  0.00    +0.000 C 
BRANCH  20  22
ATOM     21  O   UNL     1     -10.871   4.477   8.873  0.00  0.00    +0.000 OA
ATOM     22  C   UNL     1     -10.518   4.711   7.514  0.00  0.00    +0.000 C 
ENDBRANCH  20  22
ENDBRANCH  19  20
ENDBRANCH  18  19
ENDBRANCH  17  18
ENDBRANCH  16  17
ENDBRANCH  15  16
ENDBRANCH  14  15
ENDBRANCH  13  14
ENDBRANCH  12  13
ENDBRANCH  11  12
ENDBRANCH  10  11
ENDBRANCH   9  10
ENDBRANCH   8   9
ENDBRANCH   7   8
ENDBRANCH   6   7
ENDBRANCH   5   6
ENDBRANCH   4   5
ENDBRANCH   3   4
ENDBRANCH   2   3
ENDBRANCH   1   2
BRANCH   1  23
ATOM     23  C   UNL     1     -15.158   5.260  18.068  0.00  0.00    +0.000 C 
BRANCH  23  24
ATOM     24  C   UNL     1     -15.025   3.963  18.843  0.00  0.00    +0.000 C 
BRANCH  24  25
ATOM     25  O   UNL     1     -14.484   4.260  20.155  0.00  0.00    +0.000 OA
BRANCH  25  26
ATOM     26  C   UNL     1     -13.373   5.193  20.144  0.00  0.00    +0.000 C 
BRANCH  26  27
ATOM     27  C   UNL     1     -12.050   4.422  20.339  0.00  0.00    +0.000 C 
BRANCH  27  28
ATOM     28  O   UNL     1     -11.192   5.149  21.232  0.00  0.00    +0.000 OA
BRANCH  28  32
ATOM     29  C   UNL     1      -7.636   3.186  22.194  0.00  0.00    +0.000 A 
ATOM     30  C   UNL     1      -8.523   3.563  23.167  0.00  0.00    +0.000 A 
ATOM     31  C   UNL     1      -9.688   4.216  22.832  0.00  0.00    +0.000 A 
ATOM     32  C   UNL     1      -9.990   4.482  21.499  0.00  0.00    +0.000 A 
ATOM     33  C   UNL     1      -9.085   4.134  20.566  0.00  0.00    +0.000 A 
ATOM     34  C   UNL     1      -7.913   3.484  20.898  0.00  0.00    +0.000 A 
BRANCH  29  35
ATOM     35  C   UNL     1      -6.373   2.472  22.582  0.00  0.00    +0.000 C 
BRANCH  35  36
ATOM     36  C   UNL     1      -5.359   3.458  23.147  0.00  0.00    +0.000 C 
BRANCH  36  37
ATOM     37  C   UNL     1      -4.426   3.953  22.044  0.00  0.00    +0.000 C 
BRANCH  37  38
ATOM     38  C   UNL     1      -3.196   4.687  22.561  0.00  0.00    +0.000 C 
BRANCH  38  39
ATOM     39  C   UNL     1      -3.605   6.011  23.254  0.00  0.00    +0.000 C 
BRANCH  39  40
ATOM     40  C   UNL     1      -4.621   6.762  22.399  0.00  0.00    +0.000 C 
BRANCH  40  41
ATOM     41  C   UNL     1      -5.640   7.474  23.261  0.00  0.00    +0.000 C 
BRANCH  41  43
ATOM     42  C   UNL     1      -7.989   7.686  22.423  0.00  0.00    +0.000 C 
ATOM     43  C   UNL     1      -6.990   6.770  23.114  0.00  0.00    +0.000 C 
ENDBRANCH  41  43
ENDBRANCH  40  41
ENDBRANCH  39  40
ENDBRANCH  38  39
ENDBRANCH  37  38
ENDBRANCH  36  37
ENDBRANCH  35  36
ENDBRANCH  29  35
ENDBRANCH  28  32
ENDBRANCH  27  28
ENDBRANCH  26  27
ENDBRANCH  25  26
ENDBRANCH  24  25
ENDBRANCH  23  24
ENDBRANCH   1  23
TORSDOF 35
ENDMDL
MODEL 6
REMARK VINA RESULT:      -6.9      2.719      5.476
REMARK  Name = human_CD1d_NP40_pred.rank_0
REMARK  35 active torsions:
REMARK  status: ('A' for Active; 'I' for Inactive)
REMARK    1  A    between atoms: O_2  and  C_23
REMARK    2  A    between atoms: O_2  and  C_24
REMARK    3  A    between atoms: C_3  and  C_5
REMARK    4  A    between atoms: O_4  and  C_25
REMARK    5  A    between atoms: O_4  and  C_26
REMARK    6  A    between atoms: C_5  and  C_7
REMARK    7  A    between atoms: O_6  and  C_27
REMARK    8  A    between atoms: O_6  and  C_28
REMARK    9  A    between atoms: C_7  and  C_9
REMARK   10  A    between atoms: O_8  and  C_29
REMARK   11  A    between atoms: O_8  and  C_30
REMARK   12  A    between atoms: C_9  and  C_11
REMARK   13  A    between atoms: O_10  and  C_31
REMARK   14  A    between atoms: O_10  and  C_32
REMARK   15  A    between atoms: C_11  and  C_13
REMARK   16  A    between atoms: O_12  and  C_33
REMARK   17  A    between atoms: O_12  and  C_34
REMARK   18  A    between atoms: C_13  and  C_15
REMARK   19  A    between atoms: O_14  and  C_35
REMARK   20  A    between atoms: O_14  and  C_36
REMARK   21  A    between atoms: C_15  and  C_17
REMARK   22  A    between atoms: O_16  and  C_37
REMARK   23  A    between atoms: O_16  and  C_38
REMARK   24  A    between atoms: C_17  and  C_19
REMARK   25  A    between atoms: O_18  and  C_39
REMARK   26  A    between atoms: O_18  and  C_40
REMARK   27  A    between atoms: C_24  and  C_25
REMARK   28  A    between atoms: C_26  and  C_27
REMARK   29  A    between atoms: C_28  and  C_29
REMARK   30  A    between atoms: C_30  and  C_31
REMARK   31  A    between atoms: C_32  and  C_33
REMARK   32  A    between atoms: C_34  and  C_35
REMARK   33  A    between atoms: C_36  and  C_37
REMARK   34  A    between atoms: C_38  and  C_39
REMARK   35  A    between atoms: C_40  and  C_41
REMARK                            x       y       z     vdW  Elec       q    Type
REMARK                         _______ _______ _______ _____ _____    ______ ____
ROOT
ATOM      1  O   UNL     1     -14.188   8.080  22.737  0.00  0.00    +0.000 OA
ENDROOT
BRANCH   1   2
ATOM      2  C   UNL     1     -14.749   8.741  21.584  0.00  0.00    +0.000 C 
BRANCH   2   3
ATOM      3  C   UNL     1     -15.806   7.838  20.925  0.00  0.00    +0.000 C 
BRANCH   3   4
ATOM      4  O   UNL     1     -15.916   6.595  21.665  0.00  0.00    +0.000 OA
BRANCH   4   5
ATOM      5  C   UNL     1     -15.786   5.458  20.787  0.00  0.00    +0.000 C 
BRANCH   5   6
ATOM      6  C   UNL     1     -15.099   5.880  19.518  0.00  0.00    +0.000 C 
BRANCH   6   7
ATOM      7  O   UNL     1     -15.422   4.911  18.464  0.00  0.00    +0.000 OA
BRANCH   7   8
ATOM      8  C   UNL     1     -14.388   4.704  17.505  0.00  0.00    +0.000 C 
BRANCH   8   9
ATOM      9  C   UNL     1     -13.586   3.440  17.842  0.00  0.00    +0.000 C 
BRANCH   9  10
ATOM     10  O   UNL     1     -13.318   2.694  16.607  0.00  0.00    +0.000 OA
BRANCH  10  11
ATOM     11  C   UNL     1     -13.335   3.569  15.428  0.00  0.00    +0.000 C 
BRANCH  11  12
ATOM     12  C   UNL     1     -12.918   2.770  14.179  0.00  0.00    +0.000 C 
BRANCH  12  13
ATOM     13  O   UNL     1     -12.249   1.528  14.589  0.00  0.00    +0.000 OA
BRANCH  13  14
ATOM     14  C   UNL     1     -12.742   0.375  13.858  0.00  0.00    +0.000 C 
BRANCH  14  15
ATOM     15  C   UNL     1     -14.292   0.499  13.660  0.00  0.00    +0.000 C 
BRANCH  15  16
ATOM     16  O   UNL     1     -14.729  -0.475  12.667  0.00  0.00    +0.000 OA
BRANCH  16  17
ATOM     17  C   UNL     1     -16.141  -0.412  12.426  0.00  0.00    +0.000 C 
BRANCH  17  18
ATOM     18  C   UNL     1     -16.466   0.714  11.441  0.00  0.00    +0.000 C 
BRANCH  18  19
ATOM     19  O   UNL     1     -16.682   0.183  10.099  0.00  0.00    +0.000 OA
BRANCH  19  20
ATOM     20  C   UNL     1     -15.459   0.127   9.369  0.00  0.00    +0.000 C 
BRANCH  20  22
ATOM     21  O   UNL     1     -14.455   1.514   7.684  0.00  0.00    +0.000 OA
ATOM     22  C   UNL     1     -14.964   1.523   9.014  0.00  0.00    +0.000 C 
ENDBRANCH  20  22
ENDBRANCH  19  20
ENDBRANCH  18  19
ENDBRANCH  17  18
ENDBRANCH  16  17
ENDBRANCH  15  16
ENDBRANCH  14  15
ENDBRANCH  13  14
ENDBRANCH  12  13
ENDBRANCH  11  12
ENDBRANCH  10  11
ENDBRANCH   9  10
ENDBRANCH   8   9
ENDBRANCH   7   8
ENDBRANCH   6   7
ENDBRANCH   5   6
ENDBRANCH   4   5
ENDBRANCH   3   4
ENDBRANCH   2   3
ENDBRANCH   1   2
BRANCH   1  23
ATOM     23  C   UNL     1     -12.735   8.110  22.726  0.00  0.00    +0.000 C 
BRANCH  23  24
ATOM     24  C   UNL     1     -12.226   7.403  21.484  0.00  0.00    +0.000 C 
BRANCH  24  25
ATOM     25  O   UNL     1     -11.159   6.501  21.868  0.00  0.00    +0.000 OA
BRANCH  25  26
ATOM     26  C   UNL     1     -10.536   6.820  23.138  0.00  0.00    +0.000 C 
BRANCH  26  27
ATOM     27  C   UNL     1      -9.408   5.808  23.429  0.00  0.00    +0.000 C 
BRANCH  27  28
ATOM     28  O   UNL     1      -8.650   5.568  22.233  0.00  0.00    +0.000 OA
BRANCH  28  32
ATOM     29  C   UNL     1      -4.518   5.750  22.791  0.00  0.00    +0.000 A 
ATOM     30  C   UNL     1      -5.127   4.594  22.381  0.00  0.00    +0.000 A 
ATOM     31  C   UNL     1      -6.493   4.550  22.209  0.00  0.00    +0.000 A 
ATOM     32  C   UNL     1      -7.269   5.685  22.427  0.00  0.00    +0.000 A 
ATOM     33  C   UNL     1      -6.649   6.797  22.865  0.00  0.00    +0.000 A 
ATOM     34  C   UNL     1      -5.282   6.844  23.045  0.00  0.00    +0.000 A 
BRANCH  29  35
ATOM     35  C   UNL     1      -3.027   5.776  22.970  0.00  0.00    +0.000 C 
BRANCH  35  36
ATOM     36  C   UNL     1      -2.558   4.521  23.693  0.00  0.00    +0.000 C 
BRANCH  36  37
ATOM     37  C   UNL     1      -2.533   4.753  25.202  0.00  0.00    +0.000 C 
BRANCH  37  38
ATOM     38  C   UNL     1      -1.134   4.739  25.805  0.00  0.00    +0.000 C 
BRANCH  38  39
ATOM     39  C   UNL     1      -0.473   6.134  25.674  0.00  0.00    +0.000 C 
BRANCH  39  40
ATOM     40  C   UNL     1       0.554   6.127  24.547  0.00  0.00    +0.000 C 
BRANCH  40  41
ATOM     41  C   UNL     1       0.363   7.313  23.626  0.00  0.00    +0.000 C 
BRANCH  41  43
ATOM     42  C   UNL     1       1.559   9.351  24.450  0.00  0.00    +0.000 C 
ATOM     43  C   UNL     1       0.247   8.582  24.472  0.00  0.00    +0.000 C 
ENDBRANCH  41  43
ENDBRANCH  40  41
ENDBRANCH  39  40
ENDBRANCH  38  39
ENDBRANCH  37  38
ENDBRANCH  36  37
ENDBRANCH  35  36
ENDBRANCH  29  35
ENDBRANCH  28  32
ENDBRANCH  27  28
ENDBRANCH  26  27
ENDBRANCH  25  26
ENDBRANCH  24  25
ENDBRANCH  23  24
ENDBRANCH   1  23
TORSDOF 35
ENDMDL
MODEL 7
REMARK VINA RESULT:      -6.8      1.283      2.476
REMARK  Name = human_CD1d_NP40_pred.rank_0
REMARK  35 active torsions:
REMARK  status: ('A' for Active; 'I' for Inactive)
REMARK    1  A    between atoms: O_2  and  C_23
REMARK    2  A    between atoms: O_2  and  C_24
REMARK    3  A    between atoms: C_3  and  C_5
REMARK    4  A    between atoms: O_4  and  C_25
REMARK    5  A    between atoms: O_4  and  C_26
REMARK    6  A    between atoms: C_5  and  C_7
REMARK    7  A    between atoms: O_6  and  C_27
REMARK    8  A    between atoms: O_6  and  C_28
REMARK    9  A    between atoms: C_7  and  C_9
REMARK   10  A    between atoms: O_8  and  C_29
REMARK   11  A    between atoms: O_8  and  C_30
REMARK   12  A    between atoms: C_9  and  C_11
REMARK   13  A    between atoms: O_10  and  C_31
REMARK   14  A    between atoms: O_10  and  C_32
REMARK   15  A    between atoms: C_11  and  C_13
REMARK   16  A    between atoms: O_12  and  C_33
REMARK   17  A    between atoms: O_12  and  C_34
REMARK   18  A    between atoms: C_13  and  C_15
REMARK   19  A    between atoms: O_14  and  C_35
REMARK   20  A    between atoms: O_14  and  C_36
REMARK   21  A    between atoms: C_15  and  C_17
REMARK   22  A    between atoms: O_16  and  C_37
REMARK   23  A    between atoms: O_16  and  C_38
REMARK   24  A    between atoms: C_17  and  C_19
REMARK   25  A    between atoms: O_18  and  C_39
REMARK   26  A    between atoms: O_18  and  C_40
REMARK   27  A    between atoms: C_24  and  C_25
REMARK   28  A    between atoms: C_26  and  C_27
REMARK   29  A    between atoms: C_28  and  C_29
REMARK   30  A    between atoms: C_30  and  C_31
REMARK   31  A    between atoms: C_32  and  C_33
REMARK   32  A    between atoms: C_34  and  C_35
REMARK   33  A    between atoms: C_36  and  C_37
REMARK   34  A    between atoms: C_38  and  C_39
REMARK   35  A    between atoms: C_40  and  C_41
REMARK                            x       y       z     vdW  Elec       q    Type
REMARK                         _______ _______ _______ _____ _____    ______ ____
ROOT
ATOM      1  O   UNL     1     -12.107   4.113  15.057  0.00  0.00    +0.000 OA
ENDROOT
BRANCH   1   2
ATOM      2  C   UNL     1     -11.306   3.249  14.224  0.00  0.00    +0.000 C 
BRANCH   2   3
ATOM      3  C   UNL     1     -10.085   4.018  13.692  0.00  0.00    +0.000 C 
BRANCH   3   4
ATOM      4  O   UNL     1      -9.250   3.127  12.908  0.00  0.00    +0.000 OA
BRANCH   4   5
ATOM      5  C   UNL     1      -8.757   3.789  11.725  0.00  0.00    +0.000 C 
BRANCH   5   6
ATOM      6  C   UNL     1      -9.686   4.911  11.354  0.00  0.00    +0.000 C 
BRANCH   6   7
ATOM      7  O   UNL     1      -9.425   5.295   9.961  0.00  0.00    +0.000 OA
BRANCH   7   8
ATOM      8  C   UNL     1      -9.826   4.332   8.990  0.00  0.00    +0.000 C 
BRANCH   8   9
ATOM      9  C   UNL     1     -11.352   4.343   8.820  0.00  0.00    +0.000 C 
BRANCH   9  10
ATOM     10  O   UNL     1     -11.696   3.755   7.520  0.00  0.00    +0.000 OA
BRANCH  10  11
ATOM     11  C   UNL     1     -12.412   4.709   6.663  0.00  0.00    +0.000 C 
BRANCH  11  12
ATOM     12  C   UNL     1     -13.927   4.609   6.925  0.00  0.00    +0.000 C 
BRANCH  12  13
ATOM     13  O   UNL     1     -14.375   3.228   6.704  0.00  0.00    +0.000 OA
BRANCH  13  14
ATOM     14  C   UNL     1     -15.277   2.773   7.747  0.00  0.00    +0.000 C 
BRANCH  14  15
ATOM     15  C   UNL     1     -14.888   1.319   8.182  0.00  0.00    +0.000 C 
BRANCH  15  16
ATOM     16  O   UNL     1     -15.264   1.118   9.576  0.00  0.00    +0.000 OA
BRANCH  16  17
ATOM     17  C   UNL     1     -15.211  -0.262   9.963  0.00  0.00    +0.000 C 
BRANCH  17  18
ATOM     18  C   UNL     1     -14.684  -0.398  11.393  0.00  0.00    +0.000 C 
BRANCH  18  19
ATOM     19  O   UNL     1     -13.707  -1.477  11.486  0.00  0.00    +0.000 OA
BRANCH  19  20
ATOM     20  C   UNL     1     -12.917  -1.352  12.666  0.00  0.00    +0.000 C 
BRANCH  20  22
ATOM     21  O   UNL     1     -12.873  -0.578  14.939  0.00  0.00    +0.000 OA
ATOM     22  C   UNL     1     -13.701  -0.679  13.785  0.00  0.00    +0.000 C 
ENDBRANCH  20  22
ENDBRANCH  19  20
ENDBRANCH  18  19
ENDBRANCH  17  18
ENDBRANCH  16  17
ENDBRANCH  15  16
ENDBRANCH  14  15
ENDBRANCH  13  14
ENDBRANCH  12  13
ENDBRANCH  11  12
ENDBRANCH  10  11
ENDBRANCH   9  10
ENDBRANCH   8   9
ENDBRANCH   7   8
ENDBRANCH   6   7
ENDBRANCH   5   6
ENDBRANCH   4   5
ENDBRANCH   3   4
ENDBRANCH   2   3
ENDBRANCH   1   2
BRANCH   1  23
ATOM     23  C   UNL     1     -12.101   3.684  16.446  0.00  0.00    +0.000 C 
BRANCH  23  24
ATOM     24  C   UNL     1     -13.291   4.291  17.165  0.00  0.00    +0.000 C 
BRANCH  24  25
ATOM     25  O   UNL     1     -13.024   4.286  18.590  0.00  0.00    +0.000 OA
BRANCH  25  26
ATOM     26  C   UNL     1     -12.032   3.313  19.007  0.00  0.00    +0.000 C 
BRANCH  26  27
ATOM     27  C   UNL     1     -11.083   3.955  20.040  0.00  0.00    +0.000 C 
BRANCH  27  28
ATOM     28  O   UNL     1      -9.719   3.744  19.643  0.00  0.00    +0.000 OA
BRANCH  28  32
ATOM     29  C   UNL     1      -7.061   5.387  22.412  0.00  0.00    +0.000 A 
ATOM     30  C   UNL     1      -8.263   5.985  22.143  0.00  0.00    +0.000 A 
ATOM     31  C   UNL     1      -9.125   5.433  21.221  0.00  0.00    +0.000 A 
ATOM     32  C   UNL     1      -8.795   4.248  20.567  0.00  0.00    +0.000 A 
ATOM     33  C   UNL     1      -7.593   3.701  20.823  0.00  0.00    +0.000 A 
ATOM     34  C   UNL     1      -6.724   4.254  21.741  0.00  0.00    +0.000 A 
BRANCH  29  35
ATOM     35  C   UNL     1      -6.138   6.004  23.423  0.00  0.00    +0.000 C 
BRANCH  35  36
ATOM     36  C   UNL     1      -4.917   6.597  22.733  0.00  0.00    +0.000 C 
BRANCH  36  37
ATOM     37  C   UNL     1      -3.772   5.587  22.716  0.00  0.00    +0.000 C 
BRANCH  37  38
ATOM     38  C   UNL     1      -3.619   4.806  24.015  0.00  0.00    +0.000 C 
BRANCH  38  39
ATOM     39  C   UNL     1      -2.130   4.469  24.274  0.00  0.00    +0.000 C 
BRANCH  39  40
ATOM     40  C   UNL     1      -1.785   4.695  25.742  0.00  0.00    +0.000 C 
BRANCH  40  41
ATOM     41  C   UNL     1      -0.743   5.782  25.898  0.00  0.00    +0.000 C 
BRANCH  41  43
ATOM     42  C   UNL     1       1.295   6.783  24.844  0.00  0.00    +0.000 C 
ATOM     43  C   UNL     1       0.282   5.650  24.771  0.00  0.00    +0.000 C 
ENDBRANCH  41  43
ENDBRANCH  40  41
ENDBRANCH  39  40
ENDBRANCH  38  39
ENDBRANCH  37  38
ENDBRANCH  36  37
ENDBRANCH  35  36
ENDBRANCH  29  35
ENDBRANCH  28  32
ENDBRANCH  27  28
ENDBRANCH  26  27
ENDBRANCH  25  26
ENDBRANCH  24  25
ENDBRANCH  23  24
ENDBRANCH   1  23
TORSDOF 35
ENDMDL
MODEL 8
REMARK VINA RESULT:      -6.8      2.716      6.308
REMARK  Name = human_CD1d_NP40_pred.rank_0
REMARK  35 active torsions:
REMARK  status: ('A' for Active; 'I' for Inactive)
REMARK    1  A    between atoms: O_2  and  C_23
REMARK    2  A    between atoms: O_2  and  C_24
REMARK    3  A    between atoms: C_3  and  C_5
REMARK    4  A    between atoms: O_4  and  C_25
REMARK    5  A    between atoms: O_4  and  C_26
REMARK    6  A    between atoms: C_5  and  C_7
REMARK    7  A    between atoms: O_6  and  C_27
REMARK    8  A    between atoms: O_6  and  C_28
REMARK    9  A    between atoms: C_7  and  C_9
REMARK   10  A    between atoms: O_8  and  C_29
REMARK   11  A    between atoms: O_8  and  C_30
REMARK   12  A    between atoms: C_9  and  C_11
REMARK   13  A    between atoms: O_10  and  C_31
REMARK   14  A    between atoms: O_10  and  C_32
REMARK   15  A    between atoms: C_11  and  C_13
REMARK   16  A    between atoms: O_12  and  C_33
REMARK   17  A    between atoms: O_12  and  C_34
REMARK   18  A    between atoms: C_13  and  C_15
REMARK   19  A    between atoms: O_14  and  C_35
REMARK   20  A    between atoms: O_14  and  C_36
REMARK   21  A    between atoms: C_15  and  C_17
REMARK   22  A    between atoms: O_16  and  C_37
REMARK   23  A    between atoms: O_16  and  C_38
REMARK   24  A    between atoms: C_17  and  C_19
REMARK   25  A    between atoms: O_18  and  C_39
REMARK   26  A    between atoms: O_18  and  C_40
REMARK   27  A    between atoms: C_24  and  C_25
REMARK   28  A    between atoms: C_26  and  C_27
REMARK   29  A    between atoms: C_28  and  C_29
REMARK   30  A    between atoms: C_30  and  C_31
REMARK   31  A    between atoms: C_32  and  C_33
REMARK   32  A    between atoms: C_34  and  C_35
REMARK   33  A    between atoms: C_36  and  C_37
REMARK   34  A    between atoms: C_38  and  C_39
REMARK   35  A    between atoms: C_40  and  C_41
REMARK                            x       y       z     vdW  Elec       q    Type
REMARK                         _______ _______ _______ _____ _____    ______ ____
ROOT
ATOM      1  O   UNL     1     -13.890   8.865  22.741  0.00  0.00    +0.000 OA
ENDROOT
BRANCH   1   2
ATOM      2  C   UNL     1     -14.555   8.182  21.658  0.00  0.00    +0.000 C 
BRANCH   2   3
ATOM      3  C   UNL     1     -15.982   8.730  21.490  0.00  0.00    +0.000 C 
BRANCH   3   4
ATOM      4  O   UNL     1     -16.721   7.893  20.563  0.00  0.00    +0.000 OA
BRANCH   4   5
ATOM      5  C   UNL     1     -16.017   7.763  19.311  0.00  0.00    +0.000 C 
BRANCH   5   6
ATOM      6  C   UNL     1     -16.133   6.349  18.814  0.00  0.00    +0.000 C 
BRANCH   6   7
ATOM      7  O   UNL     1     -14.784   5.810  18.611  0.00  0.00    +0.000 OA
BRANCH   7   8
ATOM      8  C   UNL     1     -14.612   4.457  19.027  0.00  0.00    +0.000 C 
BRANCH   8   9
ATOM      9  C   UNL     1     -13.245   3.925  18.575  0.00  0.00    +0.000 C 
BRANCH   9  10
ATOM     10  O   UNL     1     -13.029   4.283  17.168  0.00  0.00    +0.000 OA
BRANCH  10  11
ATOM     11  C   UNL     1     -13.001   3.098  16.302  0.00  0.00    +0.000 C 
BRANCH  11  12
ATOM     12  C   UNL     1     -13.233   3.518  14.838  0.00  0.00    +0.000 C 
BRANCH  12  13
ATOM     13  O   UNL     1     -12.033   4.188  14.321  0.00  0.00    +0.000 OA
BRANCH  13  14
ATOM     14  C   UNL     1     -11.038   3.241  13.849  0.00  0.00    +0.000 C 
BRANCH  14  15
ATOM     15  C   UNL     1      -9.687   3.477  14.607  0.00  0.00    +0.000 C 
BRANCH  15  16
ATOM     16  O   UNL     1      -8.646   3.803  13.640  0.00  0.00    +0.000 OA
BRANCH  16  17
ATOM     17  C   UNL     1      -8.851   3.154  12.378  0.00  0.00    +0.000 C 
BRANCH  17  18
ATOM     18  C   UNL     1      -8.625   4.137  11.227  0.00  0.00    +0.000 C 
BRANCH  18  19
ATOM     19  O   UNL     1      -9.776   4.162  10.331  0.00  0.00    +0.000 OA
BRANCH  19  20
ATOM     20  C   UNL     1      -9.371   4.377   8.982  0.00  0.00    +0.000 C 
BRANCH  20  22
ATOM     21  O   UNL     1     -11.524   5.279   8.415  0.00  0.00    +0.000 OA
ATOM     22  C   UNL     1     -10.558   4.305   8.031  0.00  0.00    +0.000 C 
ENDBRANCH  20  22
ENDBRANCH  19  20
ENDBRANCH  18  19
ENDBRANCH  17  18
ENDBRANCH  16  17
ENDBRANCH  15  16
ENDBRANCH  14  15
ENDBRANCH  13  14
ENDBRANCH  12  13
ENDBRANCH  11  12
ENDBRANCH  10  11
ENDBRANCH   9  10
ENDBRANCH   8   9
ENDBRANCH   7   8
ENDBRANCH   6   7
ENDBRANCH   5   6
ENDBRANCH   4   5
ENDBRANCH   3   4
ENDBRANCH   2   3
ENDBRANCH   1   2
BRANCH   1  23
ATOM     23  C   UNL     1     -12.513   8.426  22.895  0.00  0.00    +0.000 C 
BRANCH  23  24
ATOM     24  C   UNL     1     -11.934   8.098  21.532  0.00  0.00    +0.000 C 
BRANCH  24  25
ATOM     25  O   UNL     1     -10.575   7.626  21.705  0.00  0.00    +0.000 OA
BRANCH  25  26
ATOM     26  C   UNL     1     -10.466   6.201  21.953  0.00  0.00    +0.000 C 
BRANCH  26  27
ATOM     27  C   UNL     1      -9.227   5.643  21.222  0.00  0.00    +0.000 C 
BRANCH  27  28
ATOM     28  O   UNL     1      -8.600   4.635  22.030  0.00  0.00    +0.000 OA
BRANCH  28  32
ATOM     29  C   UNL     1      -4.521   5.381  22.513  0.00  0.00    +0.000 A 
ATOM     30  C   UNL     1      -5.459   6.304  22.890  0.00  0.00    +0.000 A 
ATOM     31  C   UNL     1      -6.801   6.044  22.716  0.00  0.00    +0.000 A 
ATOM     32  C   UNL     1      -7.221   4.831  22.178  0.00  0.00    +0.000 A 
ATOM     33  C   UNL     1      -6.277   3.957  21.782  0.00  0.00    +0.000 A 
ATOM     34  C   UNL     1      -4.932   4.216  21.948  0.00  0.00    +0.000 A 
BRANCH  29  35
ATOM     35  C   UNL     1      -3.064   5.684  22.714  0.00  0.00    +0.000 C 
BRANCH  35  36
ATOM     36  C   UNL     1      -2.286   4.399  22.969  0.00  0.00    +0.000 C 
BRANCH  36  37
ATOM     37  C   UNL     1      -1.618   4.444  24.341  0.00  0.00    +0.000 C 
BRANCH  37  38
ATOM     38  C   UNL     1      -1.558   5.838  24.953  0.00  0.00    +0.000 C 
BRANCH  38  39
ATOM     39  C   UNL     1      -0.215   6.048  25.696  0.00  0.00    +0.000 C 
BRANCH  39  40
ATOM     40  C   UNL     1       0.791   6.738  24.781  0.00  0.00    +0.000 C 
BRANCH  40  41
ATOM     41  C   UNL     1       0.095   7.637  23.782  0.00  0.00    +0.000 C 
BRANCH  41  43
ATOM     42  C   UNL     1       1.620   9.411  24.672  0.00  0.00    +0.000 C 
ATOM     43  C   UNL     1       1.033   8.787  23.414  0.00  0.00    +0.000 C 
ENDBRANCH  41  43
ENDBRANCH  40  41
ENDBRANCH  39  40
ENDBRANCH  38  39
ENDBRANCH  37  38
ENDBRANCH  36  37
ENDBRANCH  35  36
ENDBRANCH  29  35
ENDBRANCH  28  32
ENDBRANCH  27  28
ENDBRANCH  26  27
ENDBRANCH  25  26
ENDBRANCH  24  25
ENDBRANCH  23  24
ENDBRANCH   1  23
TORSDOF 35
ENDMDL
MODEL 9
REMARK VINA RESULT:      -6.7      2.901      5.625
REMARK  Name = human_CD1d_NP40_pred.rank_0
REMARK  35 active torsions:
REMARK  status: ('A' for Active; 'I' for Inactive)
REMARK    1  A    between atoms: O_2  and  C_23
REMARK    2  A    between atoms: O_2  and  C_24
REMARK    3  A    between atoms: C_3  and  C_5
REMARK    4  A    between atoms: O_4  and  C_25
REMARK    5  A    between atoms: O_4  and  C_26
REMARK    6  A    between atoms: C_5  and  C_7
REMARK    7  A    between atoms: O_6  and  C_27
REMARK    8  A    between atoms: O_6  and  C_28
REMARK    9  A    between atoms: C_7  and  C_9
REMARK   10  A    between atoms: O_8  and  C_29
REMARK   11  A    between atoms: O_8  and  C_30
REMARK   12  A    between atoms: C_9  and  C_11
REMARK   13  A    between atoms: O_10  and  C_31
REMARK   14  A    between atoms: O_10  and  C_32
REMARK   15  A    between atoms: C_11  and  C_13
REMARK   16  A    between atoms: O_12  and  C_33
REMARK   17  A    between atoms: O_12  and  C_34
REMARK   18  A    between atoms: C_13  and  C_15
REMARK   19  A    between atoms: O_14  and  C_35
REMARK   20  A    between atoms: O_14  and  C_36
REMARK   21  A    between atoms: C_15  and  C_17
REMARK   22  A    between atoms: O_16  and  C_37
REMARK   23  A    between atoms: O_16  and  C_38
REMARK   24  A    between atoms: C_17  and  C_19
REMARK   25  A    between atoms: O_18  and  C_39
REMARK   26  A    between atoms: O_18  and  C_40
REMARK   27  A    between atoms: C_24  and  C_25
REMARK   28  A    between atoms: C_26  and  C_27
REMARK   29  A    between atoms: C_28  and  C_29
REMARK   30  A    between atoms: C_30  and  C_31
REMARK   31  A    between atoms: C_32  and  C_33
REMARK   32  A    between atoms: C_34  and  C_35
REMARK   33  A    between atoms: C_36  and  C_37
REMARK   34  A    between atoms: C_38  and  C_39
REMARK   35  A    between atoms: C_40  and  C_41
REMARK                            x       y       z     vdW  Elec       q    Type
REMARK                         _______ _______ _______ _____ _____    ______ ____
ROOT
ATOM      1  O   UNL     1     -15.008   5.937  18.360  0.00  0.00    +0.000 OA
ENDROOT
BRANCH   1   2
ATOM      2  C   UNL     1     -15.167   4.607  17.822  0.00  0.00    +0.000 C 
BRANCH   2   3
ATOM      3  C   UNL     1     -13.819   3.866  17.849  0.00  0.00    +0.000 C 
BRANCH   3   4
ATOM      4  O   UNL     1     -13.136   4.050  16.583  0.00  0.00    +0.000 OA
BRANCH   4   5
ATOM      5  C   UNL     1     -11.743   3.688  16.690  0.00  0.00    +0.000 C 
BRANCH   5   6
ATOM      6  C   UNL     1     -11.322   2.945  15.452  0.00  0.00    +0.000 C 
BRANCH   6   7
ATOM      7  O   UNL     1     -11.053   3.920  14.389  0.00  0.00    +0.000 OA
BRANCH   7   8
ATOM      8  C   UNL     1     -11.383   3.476  13.075  0.00  0.00    +0.000 C 
BRANCH   8   9
ATOM      9  C   UNL     1     -11.938   2.046  13.113  0.00  0.00    +0.000 C 
BRANCH   9  10
ATOM     10  O   UNL     1     -13.399   2.092  12.984  0.00  0.00    +0.000 OA
BRANCH  10  11
ATOM     11  C   UNL     1     -14.040   0.937  13.623  0.00  0.00    +0.000 C 
BRANCH  11  12
ATOM     12  C   UNL     1     -13.227  -0.339  13.331  0.00  0.00    +0.000 C 
BRANCH  12  13
ATOM     13  O   UNL     1     -13.731  -0.974  12.106  0.00  0.00    +0.000 OA
BRANCH  13  14
ATOM     14  C   UNL     1     -15.178  -0.903  12.009  0.00  0.00    +0.000 C 
BRANCH  14  15
ATOM     15  C   UNL     1     -15.596  -0.692  10.513  0.00  0.00    +0.000 C 
BRANCH  15  16
ATOM     16  O   UNL     1     -14.850   0.432   9.960  0.00  0.00    +0.000 OA
BRANCH  16  17
ATOM     17  C   UNL     1     -15.449   0.949   8.764  0.00  0.00    +0.000 C 
BRANCH  17  18
ATOM     18  C   UNL     1     -14.473   1.873   8.032  0.00  0.00    +0.000 C 
BRANCH  18  19
ATOM     19  O   UNL     1     -15.149   2.602   6.965  0.00  0.00    +0.000 OA
BRANCH  19  20
ATOM     20  C   UNL     1     -14.230   3.409   6.234  0.00  0.00    +0.000 C 
BRANCH  20  22
ATOM     21  O   UNL     1     -14.360   5.580   7.256  0.00  0.00    +0.000 OA
ATOM     22  C   UNL     1     -13.541   4.420   7.142  0.00  0.00    +0.000 C 
ENDBRANCH  20  22
ENDBRANCH  19  20
ENDBRANCH  18  19
ENDBRANCH  17  18
ENDBRANCH  16  17
ENDBRANCH  15  16
ENDBRANCH  14  15
ENDBRANCH  13  14
ENDBRANCH  12  13
ENDBRANCH  11  12
ENDBRANCH  10  11
ENDBRANCH   9  10
ENDBRANCH   8   9
ENDBRANCH   7   8
ENDBRANCH   6   7
ENDBRANCH   5   6
ENDBRANCH   4   5
ENDBRANCH   3   4
ENDBRANCH   2   3
ENDBRANCH   1   2
BRANCH   1  23
ATOM     23  C   UNL     1     -16.149   6.334  19.168  0.00  0.00    +0.000 C 
BRANCH  23  24
ATOM     24  C   UNL     1     -15.780   7.552  19.995  0.00  0.00    +0.000 C 
BRANCH  24  25
ATOM     25  O   UNL     1     -14.479   7.330  20.593  0.00  0.00    +0.000 OA
BRANCH  25  26
ATOM     26  C   UNL     1     -13.791   8.544  20.990  0.00  0.00    +0.000 C 
BRANCH  26  27
ATOM     27  C   UNL     1     -12.811   8.231  22.139  0.00  0.00    +0.000 C 
BRANCH  27  28
ATOM     28  O   UNL     1     -12.111   7.008  21.861  0.00  0.00    +0.000 OA
BRANCH  28  32
ATOM     29  C   UNL     1      -8.223   6.955  23.379  0.00  0.00    +0.000 A 
ATOM     30  C   UNL     1      -8.495   7.488  22.147  0.00  0.00    +0.000 A 
ATOM     31  C   UNL     1      -9.783   7.490  21.659  0.00  0.00    +0.000 A 
ATOM     32  C   UNL     1     -10.828   6.972  22.420  0.00  0.00    +0.000 A 
ATOM     33  C   UNL     1     -10.527   6.422  23.610  0.00  0.00    +0.000 A 
ATOM     34  C   UNL     1      -9.238   6.411  24.101  0.00  0.00    +0.000 A 
BRANCH  29  35
ATOM     35  C   UNL     1      -6.812   6.966  23.893  0.00  0.00    +0.000 C 
BRANCH  35  36
ATOM     36  C   UNL     1      -5.826   7.007  22.734  0.00  0.00    +0.000 C 
BRANCH  36  37
ATOM     37  C   UNL     1      -4.583   6.183  23.061  0.00  0.00    +0.000 C 
BRANCH  37  38
ATOM     38  C   UNL     1      -4.448   4.915  22.229  0.00  0.00    +0.000 C 
BRANCH  38  39
ATOM     39  C   UNL     1      -4.853   3.674  23.063  0.00  0.00    +0.000 C 
BRANCH  39  40
ATOM     40  C   UNL     1      -5.985   2.921  22.372  0.00  0.00    +0.000 C 
BRANCH  40  41
ATOM     41  C   UNL     1      -7.335   3.356  22.901  0.00  0.00    +0.000 C 
BRANCH  41  43
ATOM     42  C   UNL     1      -7.429   3.693  20.423  0.00  0.00    +0.000 C 
ATOM     43  C   UNL     1      -8.192   3.841  21.731  0.00  0.00    +0.000 C 
ENDBRANCH  41  43
ENDBRANCH  40  41
ENDBRANCH  39  40
ENDBRANCH  38  39
ENDBRANCH  37  38
ENDBRANCH  36  37
ENDBRANCH  35  36
ENDBRANCH  29  35
ENDBRANCH  28  32
ENDBRANCH  27  28
ENDBRANCH  26  27
ENDBRANCH  25  26
ENDBRANCH  24  25
ENDBRANCH  23  24
ENDBRANCH   1  23
TORSDOF 35
ENDMDL
