REMARK  Name = human_CD1d_NP40_pred.rank_0
REMARK  35 active torsions:
REMARK  status: ('A' for Active; 'I' for Inactive)
REMARK    1  A    between atoms: O_2  and  C_23
REMARK    2  A    between atoms: O_2  and  C_24
REMARK    3  A    between atoms: C_3  and  C_5
REMARK    4  A    between atoms: O_4  and  C_25
REMARK    5  A    between atoms: O_4  and  C_26
REMARK    6  A    between atoms: C_5  and  C_7
REMARK    7  A    between atoms: O_6  and  C_27
REMARK    8  A    between atoms: O_6  and  C_28
REMARK    9  A    between atoms: C_7  and  C_9
REMARK   10  A    between atoms: O_8  and  C_29
REMARK   11  A    between atoms: O_8  and  C_30
REMARK   12  A    between atoms: C_9  and  C_11
REMARK   13  A    between atoms: O_10  and  C_31
REMARK   14  A    between atoms: O_10  and  C_32
REMARK   15  A    between atoms: C_11  and  C_13
REMARK   16  A    between atoms: O_12  and  C_33
REMARK   17  A    between atoms: O_12  and  C_34
REMARK   18  A    between atoms: C_13  and  C_15
REMARK   19  A    between atoms: O_14  and  C_35
REMARK   20  A    between atoms: O_14  and  C_36
REMARK   21  A    between atoms: C_15  and  C_17
REMARK   22  A    between atoms: O_16  and  C_37
REMARK   23  A    between atoms: O_16  and  C_38
REMARK   24  A    between atoms: C_17  and  C_19
REMARK   25  A    between atoms: O_18  and  C_39
REMARK   26  A    between atoms: O_18  and  C_40
REMARK   27  A    between atoms: C_24  and  C_25
REMARK   28  A    between atoms: C_26  and  C_27
REMARK   29  A    between atoms: C_28  and  C_29
REMARK   30  A    between atoms: C_30  and  C_31
REMARK   31  A    between atoms: C_32  and  C_33
REMARK   32  A    between atoms: C_34  and  C_35
REMARK   33  A    between atoms: C_36  and  C_37
REMARK   34  A    between atoms: C_38  and  C_39
REMARK   35  A    between atoms: C_40  and  C_41
REMARK                            x       y       z     vdW  Elec       q    Type
REMARK                         _______ _______ _______ _____ _____    ______ ____
ROOT
ATOM      1  O   UNL     1       9.841  -2.158  17.047  0.00  0.00    +0.000 OA
ENDROOT
BRANCH   1   2
ATOM      2  C   UNL     1       9.135  -0.941  16.726  0.00  0.00    +0.000 C 
BRANCH   2   3
ATOM      3  C   UNL     1       8.901  -0.856  15.208  0.00  0.00    +0.000 C 
BRANCH   3   4
ATOM      4  O   UNL     1       8.659   0.523  14.828  0.00  0.00    +0.000 OA
BRANCH   4   5
ATOM      5  C   UNL     1       9.876   1.296  14.886  0.00  0.00    +0.000 C 
BRANCH   5   6
ATOM      6  C   UNL     1       9.972   2.172  13.668  0.00  0.00    +0.000 C 
BRANCH   6   7
ATOM      7  O   UNL     1      11.224   2.935  13.736  0.00  0.00    +0.000 OA
BRANCH   7   8
ATOM      8  C   UNL     1      11.644   3.505  12.499  0.00  0.00    +0.000 C 
BRANCH   8   9
ATOM      9  C   UNL     1      12.719   2.629  11.840  0.00  0.00    +0.000 C 
BRANCH   9  10
ATOM     10  O   UNL     1      13.044   3.177  10.518  0.00  0.00    +0.000 OA
BRANCH  10  11
ATOM     11  C   UNL     1      13.860   2.247   9.728  0.00  0.00    +0.000 C 
BRANCH  11  12
ATOM     12  C   UNL     1      13.087   1.817   8.467  0.00  0.00    +0.000 C 
BRANCH  12  13
ATOM     13  O   UNL     1      13.294   0.383   8.227  0.00  0.00    +0.000 OA
BRANCH  13  14
ATOM     14  C   UNL     1      12.155  -0.231   7.568  0.00  0.00    +0.000 C 
BRANCH  14  15
ATOM     15  C   UNL     1      11.753  -1.543   8.325  0.00  0.00    +0.000 C 
BRANCH  15  16
ATOM     16  O   UNL     1      10.457  -2.000   7.838  0.00  0.00    +0.000 OA
BRANCH  16  17
ATOM     17  C   UNL     1       9.897  -3.031   8.663  0.00  0.00    +0.000 C 
BRANCH  17  18
ATOM     18  C   UNL     1       8.449  -2.697   9.029  0.00  0.00    +0.000 C 
BRANCH  18  19
ATOM     19  O   UNL     1       8.113  -3.220  10.349  0.00  0.00    +0.000 OA
BRANCH  19  20
ATOM     20  C   UNL     1       7.268  -2.317  11.057  0.00  0.00    +0.000 C 
BRANCH  20  22
ATOM     21  O   UNL     1       6.504  -1.641  13.232  0.00  0.00    +0.000 OA
ATOM     22  C   UNL     1       7.200  -2.671  12.537  0.00  0.00    +0.000 C 
ENDBRANCH  20  22
ENDBRANCH  19  20
ENDBRANCH  18  19
ENDBRANCH  17  18
ENDBRANCH  16  17
ENDBRANCH  15  16
ENDBRANCH  14  15
ENDBRANCH  13  14
ENDBRANCH  12  13
ENDBRANCH  11  12
ENDBRANCH  10  11
ENDBRANCH   9  10
ENDBRANCH   8   9
ENDBRANCH   7   8
ENDBRANCH   6   7
ENDBRANCH   5   6
ENDBRANCH   4   5
ENDBRANCH   3   4
ENDBRANCH   2   3
ENDBRANCH   1   2
BRANCH   1  23
ATOM     23  C   UNL     1      10.112  -2.268  18.471  0.00  0.00    +0.000 C 
BRANCH  23  24
ATOM     24  C   UNL     1      10.708  -3.631  18.766  0.00  0.00    +0.000 C 
BRANCH  24  25
ATOM     25  O   UNL     1      11.167  -3.650  20.141  0.00  0.00    +0.000 OA
BRANCH  25  26
ATOM     26  C   UNL     1      10.890  -4.888  20.844  0.00  0.00    +0.000 C 
BRANCH  26  27
ATOM     27  C   UNL     1       9.395  -4.943  21.223  0.00  0.00    +0.000 C 
BRANCH  27  28
ATOM     28  O   UNL     1       8.873  -6.253  20.951  0.00  0.00    +0.000 OA
BRANCH  28  32
ATOM     29  C   UNL     1       4.710  -6.514  20.788  0.00  0.00    +0.000 A 
ATOM     30  C   UNL     1       5.483  -7.630  20.968  0.00  0.00    +0.000 A 
ATOM     31  C   UNL     1       6.856  -7.526  21.012  0.00  0.00    +0.000 A 
ATOM     32  C   UNL     1       7.474  -6.284  20.897  0.00  0.00    +0.000 A 
ATOM     33  C   UNL     1       6.693  -5.209  20.684  0.00  0.00    +0.000 A 
ATOM     34  C   UNL     1       5.318  -5.309  20.633  0.00  0.00    +0.000 A 
BRANCH  29  35
ATOM     35  C   UNL     1       3.215  -6.650  20.746  0.00  0.00    +0.000 C 
BRANCH  35  36
ATOM     36  C   UNL     1       2.646  -5.878  19.563  0.00  0.00    +0.000 C 
BRANCH  36  37
ATOM     37  C   UNL     1       1.123  -5.813  19.652  0.00  0.00    +0.000 C 
BRANCH  37  38
ATOM     38  C   UNL     1       0.453  -7.176  19.765  0.00  0.00    +0.000 C 
BRANCH  38  39
ATOM     39  C   UNL     1      -1.087  -7.032  19.681  0.00  0.00    +0.000 C 
BRANCH  39  40
ATOM     40  C   UNL     1      -1.762  -8.338  20.087  0.00  0.00    +0.000 C 
BRANCH  40  41
ATOM     41  C   UNL     1      -2.516  -8.948  18.925  0.00  0.00    +0.000 C 
BRANCH  41  43
ATOM     42  C   UNL     1      -3.924 -10.903  18.248  0.00  0.00    +0.000 C 
ATOM     43  C   UNL     1      -3.267 -10.186  19.418  0.00  0.00    +0.000 C 
ENDBRANCH  41  43
ENDBRANCH  40  41
ENDBRANCH  39  40
ENDBRANCH  38  39
ENDBRANCH  37  38
ENDBRANCH  36  37
ENDBRANCH  35  36
ENDBRANCH  29  35
ENDBRANCH  28  32
ENDBRANCH  27  28
ENDBRANCH  26  27
ENDBRANCH  25  26
ENDBRANCH  24  25
ENDBRANCH  23  24
ENDBRANCH   1  23
TORSDOF 35
