MODEL 1
REMARK VINA RESULT:      -8.5      0.000      0.000
REMARK  Name = human_CD1d_tritonX_pred.rank_0
REMARK  32 active torsions:
REMARK  status: ('A' for Active; 'I' for Inactive)
REMARK    1  A    between atoms: O_2  and  C_21
REMARK    2  A    between atoms: O_2  and  C_23
REMARK    3  A    between atoms: C_3  and  C_5
REMARK    4  A    between atoms: C_3  and  C_15
REMARK    5  A    between atoms: O_4  and  C_24
REMARK    6  A    between atoms: O_4  and  C_25
REMARK    7  A    between atoms: O_6  and  C_26
REMARK    8  A    between atoms: O_6  and  C_27
REMARK    9  A    between atoms: O_8  and  C_28
REMARK   10  A    between atoms: O_8  and  C_29
REMARK   11  A    between atoms: O_10  and  C_30
REMARK   12  A    between atoms: O_10  and  C_31
REMARK   13  A    between atoms: O_12  and  C_32
REMARK   14  A    between atoms: O_12  and  C_33
REMARK   15  A    between atoms: O_14  and  C_34
REMARK   16  A    between atoms: O_14  and  C_35
REMARK   17  A    between atoms: O_16  and  C_36
REMARK   18  A    between atoms: O_16  and  C_37
REMARK   19  A    between atoms: O_18  and  C_38
REMARK   20  A    between atoms: O_18  and  C_39
REMARK   21  A    between atoms: O_20  and  C_40
REMARK   22  A    between atoms: O_20  and  C_41
REMARK   23  A    between atoms: C_23  and  C_24
REMARK   24  A    between atoms: C_25  and  C_26
REMARK   25  A    between atoms: C_27  and  C_28
REMARK   26  A    between atoms: C_29  and  C_30
REMARK   27  A    between atoms: C_31  and  C_32
REMARK   28  A    between atoms: C_33  and  C_34
REMARK   29  A    between atoms: C_35  and  C_36
REMARK   30  A    between atoms: C_37  and  C_38
REMARK   31  A    between atoms: C_39  and  C_40
REMARK   32  A    between atoms: C_41  and  C_42
REMARK                            x       y       z     vdW  Elec       q    Type
REMARK                         _______ _______ _______ _____ _____    ______ ____
ROOT
ATOM      1  O   UNL     1     -10.971   4.074  16.620  0.00  0.00    +0.000 OA
ENDROOT
BRANCH   1   2
ATOM      2  C   UNL     1     -11.265   3.378  17.839  0.00  0.00    +0.000 C 
BRANCH   2   3
ATOM      3  C   UNL     1     -10.699   4.157  19.019  0.00  0.00    +0.000 C 
BRANCH   3   4
ATOM      4  O   UNL     1     -11.373   3.875  20.226  0.00  0.00    +0.000 OA
BRANCH   4   5
ATOM      5  C   UNL     1     -10.792   4.348  21.430  0.00  0.00    +0.000 C 
BRANCH   5   6
ATOM      6  C   UNL     1      -9.427   4.983  21.190  0.00  0.00    +0.000 C 
BRANCH   6   7
ATOM      7  O   UNL     1      -8.457   4.376  22.037  0.00  0.00    +0.000 OA
BRANCH   7   8
ATOM      8  C   UNL     1      -7.561   3.454  21.387  0.00  0.00    +0.000 C 
BRANCH   8   9
ATOM      9  C   UNL     1      -6.500   2.977  22.378  0.00  0.00    +0.000 C 
BRANCH   9  10
ATOM     10  O   UNL     1      -6.029   4.057  23.197  0.00  0.00    +0.000 OA
BRANCH  10  14
ATOM     11  C   UNL     1      -2.024   4.561  24.032  0.00  0.00    +0.000 A 
ATOM     12  C   UNL     1      -3.008   4.529  25.040  0.00  0.00    +0.000 A 
ATOM     13  C   UNL     1      -4.329   4.368  24.756  0.00  0.00    +0.000 A 
ATOM     14  C   UNL     1      -4.687   4.183  23.446  0.00  0.00    +0.000 A 
ATOM     15  C   UNL     1      -3.774   4.193  22.436  0.00  0.00    +0.000 A 
ATOM     16  C   UNL     1      -2.454   4.366  22.699  0.00  0.00    +0.000 A 
BRANCH  11  18
ATOM     17  C   UNL     1      -0.058   3.589  25.127  0.00  0.00    +0.000 C 
ATOM     18  C   UNL     1      -0.555   4.763  24.312  0.00  0.00    +0.000 C 
ATOM     19  C   UNL     1       0.131   4.759  22.979  0.00  0.00    +0.000 C 
BRANCH  18  20
ATOM     20  C   UNL     1      -0.226   6.095  25.023  0.00  0.00    +0.000 C 
ATOM     21  C   UNL     1       1.220   6.482  24.769  0.00  0.00    +0.000 C 
ATOM     22  C   UNL     1      -0.392   5.982  26.496  0.00  0.00    +0.000 C 
ATOM     23  C   UNL     1      -1.085   7.214  24.490  0.00  0.00    +0.000 C 
ENDBRANCH  18  20
ENDBRANCH  11  18
ENDBRANCH  10  14
ENDBRANCH   9  10
ENDBRANCH   8   9
ENDBRANCH   7   8
ENDBRANCH   6   7
ENDBRANCH   5   6
ENDBRANCH   4   5
ENDBRANCH   3   4
ENDBRANCH   2   3
ENDBRANCH   1   2
BRANCH   1  24
ATOM     24  C   UNL     1     -11.677   3.521  15.485  0.00  0.00    +0.000 C 
BRANCH  24  25
ATOM     25  C   UNL     1     -10.719   2.894  14.497  0.00  0.00    +0.000 C 
BRANCH  25  26
ATOM     26  O   UNL     1      -9.365   3.230  14.825  0.00  0.00    +0.000 OA
BRANCH  26  27
ATOM     27  C   UNL     1      -8.540   3.385  13.678  0.00  0.00    +0.000 C 
BRANCH  27  28
ATOM     28  C   UNL     1      -9.352   3.356  12.393  0.00  0.00    +0.000 C 
BRANCH  28  29
ATOM     29  O   UNL     1      -8.561   3.742  11.272  0.00  0.00    +0.000 OA
BRANCH  29  30
ATOM     30  C   UNL     1      -9.050   4.822  10.540  0.00  0.00    +0.000 C 
BRANCH  30  31
ATOM     31  C   UNL     1      -9.413   4.412   9.134  0.00  0.00    +0.000 C 
BRANCH  31  32
ATOM     32  O   UNL     1      -9.110   5.417   8.187  0.00  0.00    +0.000 OA
BRANCH  32  33
ATOM     33  C   UNL     1     -10.206   5.850   7.381  0.00  0.00    +0.000 C 
BRANCH  33  34
ATOM     34  C   UNL     1     -10.928   4.663   6.794  0.00  0.00    +0.000 C 
BRANCH  34  35
ATOM     35  O   UNL     1     -12.320   4.862   6.760  0.00  0.00    +0.000 OA
BRANCH  35  36
ATOM     36  C   UNL     1     -13.070   3.772   6.335  0.00  0.00    +0.000 C 
BRANCH  36  37
ATOM     37  C   UNL     1     -14.473   4.207   5.977  0.00  0.00    +0.000 C 
BRANCH  37  38
ATOM     38  O   UNL     1     -15.409   3.111   6.079  0.00  0.00    +0.000 OA
BRANCH  38  39
ATOM     39  C   UNL     1     -15.950   2.946   7.392  0.00  0.00    +0.000 C 
BRANCH  39  40
ATOM     40  C   UNL     1     -16.914   4.054   7.750  0.00  0.00    +0.000 C 
BRANCH  40  41
ATOM     41  O   UNL     1     -16.394   4.937   8.734  0.00  0.00    +0.000 OA
BRANCH  41  42
ATOM     42  C   UNL     1     -16.515   6.321   8.400  0.00  0.00    +0.000 C 
BRANCH  42  44
ATOM     43  O   UNL     1     -18.279   7.162   7.031  0.00  0.00    +0.000 OA
ATOM     44  C   UNL     1     -17.040   6.499   6.988  0.00  0.00    +0.000 C 
ENDBRANCH  42  44
ENDBRANCH  41  42
ENDBRANCH  40  41
ENDBRANCH  39  40
ENDBRANCH  38  39
ENDBRANCH  37  38
ENDBRANCH  36  37
ENDBRANCH  35  36
ENDBRANCH  34  35
ENDBRANCH  33  34
ENDBRANCH  32  33
ENDBRANCH  31  32
ENDBRANCH  30  31
ENDBRANCH  29  30
ENDBRANCH  28  29
ENDBRANCH  27  28
ENDBRANCH  26  27
ENDBRANCH  25  26
ENDBRANCH  24  25
ENDBRANCH   1  24
TORSDOF 32
BEGIN_RES LEU A  10
REMARK  2 active torsions:
REMARK  status: ('A' for Active; 'I' for Inactive)
REMARK    1  A    between atoms: CA   and  CB  
REMARK    2  A    between atoms: CB   and  CG  
ROOT
ATOM      1  CA  LEU A  10     -10.775  -4.871   5.898  1.00 25.14     0.177 C 
ENDROOT
BRANCH   1   2
ATOM      2  CB  LEU A  10     -12.191  -4.387   6.226  1.00 17.87     0.038 C 
BRANCH   2   3
ATOM      3  CG  LEU A  10     -12.707  -3.273   5.312  1.00 24.95    -0.020 C 
ATOM      4  CD2 LEU A  10     -13.547  -2.337   6.113  1.00 26.38     0.009 C 
ATOM      5  CD1 LEU A  10     -13.502  -3.847   4.152  1.00 28.12     0.009 C 
ENDBRANCH   2   3
ENDBRANCH   1   2
END_RES LEU A  10
BEGIN_RES CYS A  12
REMARK  2 active torsions:
REMARK  status: ('A' for Active; 'I' for Inactive)
REMARK    3  A    between atoms: CA   and  CB  
REMARK    4  A    between atoms: CB   and  SG  
ROOT
ATOM      6  CA  CYS A  12      -8.555   0.470   8.750  1.00 23.16     0.185 C 
ENDROOT
BRANCH   6   7
ATOM      7  CB  CYS A  12      -9.828   0.763   9.555  1.00 20.43     0.105 C 
BRANCH   7   8
ATOM      8  SG  CYS A  12     -11.325   1.117   8.584  1.00 24.64    -0.180 SA
ATOM      9  H04 CYS A  12     -11.342   2.413   8.245  1.00 24.64     0.101 HD
ENDBRANCH   7   8
ENDBRANCH   6   7
END_RES CYS A  12
BEGIN_RES GLN A  14
REMARK  3 active torsions:
REMARK  status: ('A' for Active; 'I' for Inactive)
REMARK    5  A    between atoms: CA   and  CB  
REMARK    6  A    between atoms: CB   and  CG  
REMARK    7  A    between atoms: CG   and  CD  
REMARK       I    between atoms: CD   and  NE2 
ROOT
ATOM     10  CA  GLN A  14      -4.645   5.402  11.377  1.00 10.43     0.177 C 
ENDROOT
BRANCH  10  11
ATOM     11  CB  GLN A  14      -5.541   5.549  12.608  1.00 14.45     0.044 C 
BRANCH  11  12
ATOM     12  CG  GLN A  14      -6.565   6.655  12.497  1.00 13.74     0.105 C 
BRANCH  12  13
ATOM     13  CD  GLN A  14      -6.042   7.979  13.003  1.00 16.29     0.215 C 
ATOM     14  NE2 GLN A  14      -5.713   8.866  12.089  1.00  8.57    -0.370 N 
ATOM     15  H06 GLN A  14      -5.358   9.770  12.368  1.00  8.57     0.159 HD
ATOM     16  H07 GLN A  14      -5.815   8.644  11.109  1.00  8.57     0.159 HD
ATOM     17  OE1 GLN A  14      -5.939   8.200  14.199  1.00 23.55    -0.274 OA
ENDBRANCH  12  13
ENDBRANCH  11  12
ENDBRANCH  10  11
END_RES GLN A  14
BEGIN_RES SER A  16
REMARK  2 active torsions:
REMARK  status: ('A' for Active; 'I' for Inactive)
REMARK    8  A    between atoms: CA   and  CB  
REMARK    9  A    between atoms: CB   and  OG  
ROOT
ATOM     18  CA  SER A  16      -1.305  10.019  14.282  1.00  2.34     0.200 C 
ENDROOT
BRANCH  18  19
ATOM     19  CB  SER A  16      -2.242   9.935  15.479  1.00  3.12     0.199 C 
BRANCH  19  20
ATOM     20  OG  SER A  16      -1.974   8.766  16.234  1.00  1.00    -0.398 OA
ATOM     21  H04 SER A  16      -2.666   8.641  16.887  1.00  1.00     0.209 HD
ENDBRANCH  19  20
ENDBRANCH  18  19
END_RES SER A  16
BEGIN_RES LEU A  32
REMARK  2 active torsions:
REMARK  status: ('A' for Active; 'I' for Inactive)
REMARK   10  A    between atoms: CA   and  CB  
REMARK   11  A    between atoms: CB   and  CG  
ROOT
ATOM     22  CA  LEU A  32     -10.272  -4.106   1.587  1.00 16.16     0.177 C 
ENDROOT
BRANCH  22  23
ATOM     23  CB  LEU A  32     -11.613  -3.858   0.880  1.00 12.35     0.038 C 
BRANCH  23  24
ATOM     24  CG  LEU A  32     -12.592  -5.033   1.077  1.00  9.77    -0.020 C 
ATOM     25  CD1 LEU A  32     -14.005  -4.597   0.768  1.00  4.35     0.009 C 
ATOM     26  CD2 LEU A  32     -12.216  -6.199   0.201  1.00 10.60     0.009 C 
ENDBRANCH  23  24
ENDBRANCH  22  23
END_RES LEU A  32
BEGIN_RES HIS A  38
REMARK  2 active torsions:
REMARK  status: ('A' for Active; 'I' for Inactive)
REMARK   12  A    between atoms: CA   and  CB  
REMARK   13  A    between atoms: CB   and  CG  
ROOT
ATOM     27  CA  HIS A  38     -10.959   4.941   1.621  1.00 16.94     0.182 C 
ENDROOT
BRANCH  27  28
ATOM     28  CB  HIS A  38     -11.810   4.840   2.881  1.00 15.47     0.095 C 
BRANCH  28  29
ATOM     29  CG  HIS A  38     -13.280   4.916   2.624  1.00 18.62     0.053 A 
ATOM     30  CD2 HIS A  38     -14.200   3.940   2.433  1.00 15.06     0.116 A 
ATOM     31  NE2 HIS A  38     -15.414   4.558   2.270  1.00 18.12    -0.359 N 
ATOM     32  CE1 HIS A  38     -15.247   5.864   2.355  1.00 14.78     0.207 A 
ATOM     33  H06 HIS A  38     -16.293   4.089   2.109  1.00 18.12     0.166 HD
ATOM     34  ND1 HIS A  38     -13.969   6.107   2.568  1.00 16.58    -0.247 NA
ENDBRANCH  28  29
ENDBRANCH  27  28
END_RES HIS A  38
BEGIN_RES TRP A  63
REMARK  2 active torsions:
REMARK  status: ('A' for Active; 'I' for Inactive)
REMARK   14  A    between atoms: CA   and  CB  
REMARK   15  A    between atoms: CB   and  CG  
ROOT
ATOM     35  CA  TRP A  63     -22.437   6.257   6.543  1.00 27.04     0.181 C 
ENDROOT
BRANCH  35  36
ATOM     36  CB  TRP A  63     -22.360   6.642   5.068  1.00 31.37     0.075 C 
BRANCH  36  37
ATOM     37  CG  TRP A  63     -20.961   6.639   4.489  1.00 34.37    -0.028 A 
ATOM     38  CD2 TRP A  63     -20.288   7.727   3.841  1.00 33.79    -0.002 A 
ATOM     39  CE3 TRP A  63     -20.655   9.028   3.492  1.00 32.99     0.014 A 
ATOM     40  CE2 TRP A  63     -18.982   7.286   3.533  1.00 35.84     0.042 A 
ATOM     41  CZ3 TRP A  63     -19.725   9.837   2.855  1.00 32.93     0.001 A 
ATOM     42  CH2 TRP A  63     -18.434   9.368   2.561  1.00 39.24     0.002 A 
ATOM     43  CZ2 TRP A  63     -18.045   8.098   2.893  1.00 37.99     0.030 A 
ATOM     44  NE1 TRP A  63     -18.874   5.995   3.972  1.00 37.98    -0.365 N 
ATOM     45  H06 TRP A  63     -18.052   5.414   3.890  1.00 37.98     0.165 HD
ATOM     46  CD1 TRP A  63     -20.066   5.617   4.541  1.00 38.16     0.096 A 
ENDBRANCH  36  37
ENDBRANCH  35  36
END_RES TRP A  63
BEGIN_RES LEU A  66
REMARK  2 active torsions:
REMARK  status: ('A' for Active; 'I' for Inactive)
REMARK   16  A    between atoms: CA   and  CB  
REMARK   17  A    between atoms: CB   and  CG  
ROOT
ATOM     47  CA  LEU A  66     -20.004   6.489  11.120  1.00 10.90     0.177 C 
ENDROOT
BRANCH  47  48
ATOM     48  CB  LEU A  66     -19.626   5.453  10.069  1.00 13.57     0.038 C 
BRANCH  48  49
ATOM     49  CG  LEU A  66     -19.409   4.018  10.548  1.00  8.73    -0.020 C 
ATOM     50  CD1 LEU A  66     -19.301   3.970  12.050  1.00 14.23     0.009 C 
ATOM     51  CD2 LEU A  66     -20.572   3.179  10.085  1.00  1.92     0.009 C 
ENDBRANCH  48  49
ENDBRANCH  47  48
END_RES LEU A  66
BEGIN_RES PHE A  70
REMARK  2 active torsions:
REMARK  status: ('A' for Active; 'I' for Inactive)
REMARK   18  A    between atoms: CA   and  CB  
REMARK   19  A    between atoms: CB   and  CG  
ROOT
ATOM     52  CA  PHE A  70     -14.974   9.434  13.165  1.00  8.78     0.180 C 
ENDROOT
BRANCH  52  53
ATOM     53  CB  PHE A  70     -14.707   9.132  11.681  1.00  6.33     0.073 C 
BRANCH  53  54
ATOM     54  CG  PHE A  70     -13.979   7.835  11.456  1.00  3.42    -0.056 A 
ATOM     55  CD1 PHE A  70     -13.539   7.067  12.523  1.00 13.88     0.007 A 
ATOM     56  CE1 PHE A  70     -12.817   5.880  12.306  1.00 12.71     0.001 A 
ATOM     57  CZ  PHE A  70     -12.536   5.457  11.007  1.00  4.21     0.000 A 
ATOM     58  CE2 PHE A  70     -12.972   6.213   9.934  1.00  2.83     0.001 A 
ATOM     59  CD2 PHE A  70     -13.692   7.398  10.162  1.00  1.00     0.007 A 
ENDBRANCH  53  54
ENDBRANCH  52  53
END_RES PHE A  70
BEGIN_RES TYR A  73
REMARK  3 active torsions:
REMARK  status: ('A' for Active; 'I' for Inactive)
REMARK   20  A    between atoms: CA   and  CB  
REMARK   21  A    between atoms: CB   and  CG  
REMARK   22  A    between atoms: CZ   and  OH  
ROOT
ATOM     60  CA  TYR A  73     -13.212  10.166  17.260  1.00 12.17     0.180 C 
ENDROOT
BRANCH  60  61
ATOM     61  CB  TYR A  73     -13.301   8.846  16.517  1.00 12.84     0.073 C 
BRANCH  61  62
ATOM     62  CG  TYR A  73     -13.567   7.688  17.414  1.00 15.89    -0.056 A 
ATOM     63  CD1 TYR A  73     -13.996   6.481  16.909  1.00 16.00     0.010 A 
ATOM     64  CE1 TYR A  73     -14.275   5.404  17.750  1.00 13.55     0.037 A 
ATOM     65  CZ  TYR A  73     -14.119   5.553  19.114  1.00 18.13     0.065 A 
ATOM     66  CE2 TYR A  73     -13.691   6.748  19.644  1.00 15.89     0.037 A 
ATOM     67  CD2 TYR A  73     -13.416   7.809  18.791  1.00 21.86     0.010 A 
BRANCH  65  68
ATOM     68  OH  TYR A  73     -14.382   4.504  19.961  1.00 12.12    -0.361 OA
ATOM     69  H08 TYR A  73     -13.563   4.198  20.357  1.00 12.12     0.217 HD
ENDBRANCH  65  68
ENDBRANCH  61  62
ENDBRANCH  60  61
END_RES TYR A  73
BEGIN_RES PHE A  77
REMARK  2 active torsions:
REMARK  status: ('A' for Active; 'I' for Inactive)
REMARK   23  A    between atoms: CA   and  CB  
REMARK   24  A    between atoms: CB   and  CG  
ROOT
ATOM     70  CA  PHE A  77      -8.400  10.581  20.110  1.00 17.17     0.180 C 
ENDROOT
BRANCH  70  71
ATOM     71  CB  PHE A  77      -8.228   9.750  18.851  1.00 10.44     0.073 C 
BRANCH  71  72
ATOM     72  CG  PHE A  77      -7.157   8.710  18.957  1.00  6.07    -0.056 A 
ATOM     73  CD2 PHE A  77      -7.207   7.752  19.944  1.00  9.61     0.007 A 
ATOM     74  CE2 PHE A  77      -6.218   6.781  20.049  1.00  1.00     0.001 A 
ATOM     75  CZ  PHE A  77      -5.165   6.768  19.150  1.00  1.92     0.000 A 
ATOM     76  CE1 PHE A  77      -5.101   7.717  18.155  1.00  9.25     0.001 A 
ATOM     77  CD1 PHE A  77      -6.099   8.687  18.063  1.00  9.63     0.007 A 
ENDBRANCH  71  72
ENDBRANCH  70  71
END_RES PHE A  77
BEGIN_RES LEU A  96
REMARK  2 active torsions:
REMARK  status: ('A' for Active; 'I' for Inactive)
REMARK   25  A    between atoms: CA   and  CB  
REMARK   26  A    between atoms: CB   and  CG  
ROOT
ATOM     78  CA  LEU A  96       0.717   6.481  17.359  1.00 16.08     0.177 C 
ENDROOT
BRANCH  78  79
ATOM     79  CB  LEU A  96      -0.370   7.101  18.230  1.00 18.83     0.038 C 
BRANCH  79  80
ATOM     80  CG  LEU A  96      -0.168   6.905  19.732  1.00 19.03    -0.020 C 
ATOM     81  CD1 LEU A  96       0.658   8.052  20.267  1.00 28.17     0.009 C 
ATOM     82  CD2 LEU A  96      -1.500   6.900  20.447  1.00 22.01     0.009 C 
ENDBRANCH  79  80
ENDBRANCH  78  79
END_RES LEU A  96
BEGIN_RES VAL A  98
REMARK  1 active torsions:
REMARK  status: ('A' for Active; 'I' for Inactive)
REMARK   27  A    between atoms: CA   and  CB  
ROOT
ATOM     83  CA  VAL A  98      -3.928   2.082  14.897  1.00 19.83     0.180 C 
ENDROOT
BRANCH  83  84
ATOM     84  CB  VAL A  98      -5.203   2.807  15.281  1.00 17.87     0.009 C 
ATOM     85  CG2 VAL A  98      -4.890   4.224  15.685  1.00 29.90     0.012 C 
ATOM     86  CG1 VAL A  98      -5.887   2.065  16.410  1.00 14.79     0.012 C 
ENDBRANCH  83  84
END_RES VAL A  98
BEGIN_RES ASN A 112
REMARK  2 active torsions:
REMARK  status: ('A' for Active; 'I' for Inactive)
REMARK   28  A    between atoms: CA   and  CB  
REMARK   29  A    between atoms: CB   and  CG  
REMARK       I    between atoms: CG   and  ND2 
ROOT
ATOM     87  CA  ASN A 112     -11.790  -8.793  14.069  1.00 37.70     0.185 C 
ENDROOT
BRANCH  87  88
ATOM     88  CB  ASN A 112     -12.992  -7.945  14.465  1.00 26.24     0.137 C 
BRANCH  88  89
ATOM     89  CG  ASN A 112     -13.814  -8.563  15.574  1.00 21.77     0.217 C 
ATOM     90  ND2 ASN A 112     -14.957  -9.142  15.206  1.00  9.31    -0.370 N 
ATOM     91  H04 ASN A 112     -15.552  -9.571  15.901  1.00  9.31     0.159 HD
ATOM     92  H05 ASN A 112     -15.228  -9.151  14.233  1.00  9.31     0.159 HD
ATOM     93  OD1 ASN A 112     -13.432  -8.519  16.749  1.00 21.61    -0.274 OA
ENDBRANCH  88  89
ENDBRANCH  87  88
END_RES ASN A 112
BEGIN_RES PHE A 114
REMARK  2 active torsions:
REMARK  status: ('A' for Active; 'I' for Inactive)
REMARK   30  A    between atoms: CA   and  CB  
REMARK   31  A    between atoms: CB   and  CG  
ROOT
ATOM     94  CA  PHE A 114      -7.754  -3.619  17.012  1.00 26.06     0.180 C 
ENDROOT
BRANCH  94  95
ATOM     95  CB  PHE A 114      -8.890  -3.080  17.867  1.00 19.95     0.073 C 
BRANCH  95  96
ATOM     96  CG  PHE A 114      -8.763  -1.622  18.171  1.00 17.65    -0.056 A 
ATOM     97  CD1 PHE A 114      -8.597  -1.179  19.480  1.00 13.01     0.007 A 
ATOM     98  CE1 PHE A 114      -8.508   0.177  19.766  1.00  6.74     0.001 A 
ATOM     99  CZ  PHE A 114      -8.581   1.113  18.738  1.00  6.27     0.000 A 
ATOM    100  CE2 PHE A 114      -8.744   0.683  17.431  1.00 17.36     0.001 A 
ATOM    101  CD2 PHE A 114      -8.834  -0.684  17.150  1.00 18.39     0.007 A 
ENDBRANCH  95  96
ENDBRANCH  94  95
END_RES PHE A 114
BEGIN_RES VAL A 116
REMARK  1 active torsions:
REMARK  status: ('A' for Active; 'I' for Inactive)
REMARK   32  A    between atoms: CA   and  CB  
ROOT
ATOM    102  CA  VAL A 116      -2.467   0.283  18.565  1.00 13.48     0.180 C 
ENDROOT
BRANCH 102 103
ATOM    103  CB  VAL A 116      -3.101   1.238  19.599  1.00 20.86     0.009 C 
ATOM    104  CG1 VAL A 116      -2.875   2.688  19.163  1.00 25.01     0.012 C 
ATOM    105  CG2 VAL A 116      -4.570   0.935  19.782  1.00 25.34     0.012 C 
ENDBRANCH 102 103
END_RES VAL A 116
BEGIN_RES ILE A 123
REMARK  2 active torsions:
REMARK  status: ('A' for Active; 'I' for Inactive)
REMARK   33  A    between atoms: CA   and  CB  
REMARK   34  A    between atoms: CB   and  CG1 
ROOT
ATOM    106  CA  ILE A 123       1.557  -1.626  23.222  1.00 15.07     0.180 C 
ENDROOT
BRANCH 106 107
ATOM    107  CB  ILE A 123       1.697  -0.112  23.461  1.00 14.41     0.013 C 
ATOM    108  CG2 ILE A 123       3.084   0.201  23.995  1.00 18.35     0.012 C 
BRANCH 107 109
ATOM    109  CG1 ILE A 123       1.445   0.655  22.165  1.00 15.23     0.002 C 
ATOM    110  CD1 ILE A 123       0.113   1.365  22.131  1.00 14.67     0.005 C 
ENDBRANCH 107 109
ENDBRANCH 106 107
END_RES ILE A 123
BEGIN_RES LEU A 124
REMARK  2 active torsions:
REMARK  status: ('A' for Active; 'I' for Inactive)
REMARK   35  A    between atoms: CA   and  CB  
REMARK   36  A    between atoms: CB   and  CG  
ROOT
ATOM    111  CA  LEU A 124      -2.057  -2.686  23.524  1.00 11.86     0.177 C 
ENDROOT
BRANCH 111 112
ATOM    112  CB  LEU A 124      -2.698  -1.652  24.429  1.00 14.60     0.038 C 
BRANCH 112 113
ATOM    113  CG  LEU A 124      -2.602  -0.248  23.850  1.00 16.19    -0.020 C 
ATOM    114  CD1 LEU A 124      -3.994   0.185  23.352  1.00 22.07     0.009 C 
ATOM    115  CD2 LEU A 124      -2.063   0.692  24.899  1.00  9.12     0.009 C 
ENDBRANCH 112 113
ENDBRANCH 111 112
END_RES LEU A 124
BEGIN_RES PHE A 126
REMARK  2 active torsions:
REMARK  status: ('A' for Active; 'I' for Inactive)
REMARK   37  A    between atoms: CA   and  CB  
REMARK   38  A    between atoms: CB   and  CG  
ROOT
ATOM    116  CA  PHE A 126      -8.784  -4.792  22.233  1.00 23.15     0.180 C 
ENDROOT
BRANCH 116 117
ATOM    117  CB  PHE A 126      -9.823  -4.011  21.461  1.00 20.65     0.073 C 
BRANCH 117 118
ATOM    118  CG  PHE A 126     -10.947  -3.538  22.298  1.00 23.65    -0.056 A 
ATOM    119  CD2 PHE A 126     -10.758  -2.532  23.229  1.00 36.63     0.007 A 
ATOM    120  CE2 PHE A 126     -11.824  -2.084  24.021  1.00 36.27     0.001 A 
ATOM    121  CZ  PHE A 126     -13.081  -2.650  23.873  1.00 18.06     0.000 A 
ATOM    122  CE1 PHE A 126     -13.274  -3.652  22.943  1.00  5.50     0.001 A 
ATOM    123  CD1 PHE A 126     -12.208  -4.091  22.158  1.00 15.29     0.007 A 
ENDBRANCH 117 118
ENDBRANCH 116 117
END_RES PHE A 126
BEGIN_RES TRP A 131
REMARK  2 active torsions:
REMARK  status: ('A' for Active; 'I' for Inactive)
REMARK   39  A    between atoms: CA   and  CB  
REMARK   40  A    between atoms: CB   and  CG  
ROOT
ATOM    124  CA  TRP A 131      -8.096  -3.335  26.542  1.00 14.52     0.181 C 
ENDROOT
BRANCH 124 125
ATOM    125  CB  TRP A 131      -7.651  -1.877  26.607  1.00 13.06     0.075 C 
BRANCH 125 126
ATOM    126  CG  TRP A 131      -8.002  -1.065  25.380  1.00 16.97    -0.028 A 
ATOM    127  CD2 TRP A 131      -9.084  -0.139  25.252  1.00 11.34    -0.002 A 
ATOM    128  CE2 TRP A 131      -9.034   0.392  23.948  1.00  5.87     0.042 A 
ATOM    129  CE3 TRP A 131     -10.093   0.293  26.119  1.00  3.80     0.014 A 
ATOM    130  CZ2 TRP A 131      -9.954   1.336  23.490  1.00  1.35     0.030 A 
ATOM    131  NE1 TRP A 131      -7.971  -0.185  23.309  1.00 13.90    -0.365 N 
ATOM    132  CH2 TRP A 131     -10.934   1.743  24.363  1.00  1.00     0.002 A 
ATOM    133  CZ3 TRP A 131     -11.010   1.227  25.670  1.00  1.00     0.001 A 
ATOM    134  CD1 TRP A 131      -7.355  -1.059  24.174  1.00 17.22     0.096 A 
ATOM    135  H07 TRP A 131      -7.686  -0.000  22.358  1.00 13.90     0.165 HD
ENDBRANCH 125 126
ENDBRANCH 124 125
END_RES TRP A 131
BEGIN_RES LEU A 148
REMARK  2 active torsions:
REMARK  status: ('A' for Active; 'I' for Inactive)
REMARK   41  A    between atoms: CA   and  CB  
REMARK   42  A    between atoms: CB   and  CG  
ROOT
ATOM    136  CA  LEU A 148      -9.018   3.259  29.295  1.00 16.99     0.177 C 
ENDROOT
BRANCH 136 137
ATOM    137  CB  LEU A 148      -8.166   2.574  28.236  1.00  6.39     0.038 C 
BRANCH 137 138
ATOM    138  CG  LEU A 148      -8.011   3.169  26.851  1.00  1.00    -0.020 C 
ATOM    139  CD2 LEU A 148      -6.884   2.500  26.120  1.00  1.00     0.009 C 
ATOM    140  CD1 LEU A 148      -7.744   4.656  27.000  1.00  2.71     0.009 C 
ENDBRANCH 137 138
ENDBRANCH 136 137
END_RES LEU A 148
BEGIN_RES THR A 154
REMARK  2 active torsions:
REMARK  status: ('A' for Active; 'I' for Inactive)
REMARK   43  A    between atoms: CA   and  CB  
REMARK   44  A    between atoms: CB   and  OG1 
ROOT
ATOM    141  CA  THR A 154     -15.990   3.959  24.426  1.00 20.45     0.205 C 
ENDROOT
BRANCH 141 142
ATOM    142  CB  THR A 154     -14.777   4.829  24.694  1.00 16.79     0.146 C 
ATOM    143  CG2 THR A 154     -13.618   4.396  23.817  1.00 20.24     0.042 C 
BRANCH 142 144
ATOM    144  OG1 THR A 154     -15.105   6.190  24.389  1.00 18.84    -0.393 OA
ATOM    145  H06 THR A 154     -15.653   6.553  25.088  1.00 18.84     0.210 HD
ENDBRANCH 142 144
ENDBRANCH 141 142
END_RES THR A 154
BEGIN_RES VAL A 158
REMARK  1 active torsions:
REMARK  status: ('A' for Active; 'I' for Inactive)
REMARK   45  A    between atoms: CA   and  CB  
ROOT
ATOM    146  CA  VAL A 158     -15.487  -0.189  19.892  1.00 15.49     0.180 C 
ENDROOT
BRANCH 146 147
ATOM    147  CB  VAL A 158     -14.291  -0.273  20.822  1.00  6.52     0.009 C 
ATOM    148  CG1 VAL A 158     -13.249  -1.223  20.276  1.00  1.00     0.012 C 
ATOM    149  CG2 VAL A 158     -13.718   1.100  20.992  1.00  5.99     0.012 C 
ENDBRANCH 146 147
END_RES VAL A 158
BEGIN_RES LEU A 161
REMARK  2 active torsions:
REMARK  status: ('A' for Active; 'I' for Inactive)
REMARK   46  A    between atoms: CA   and  CB  
REMARK   47  A    between atoms: CB   and  CG  
ROOT
ATOM    150  CA  LEU A 161     -18.031  -1.858  15.935  1.00 13.31     0.177 C 
ENDROOT
BRANCH 150 151
ATOM    151  CB  LEU A 161     -17.046  -0.706  16.001  1.00 14.13     0.038 C 
BRANCH 151 152
ATOM    152  CG  LEU A 161     -17.433   0.557  15.243  1.00 19.39    -0.020 C 
ATOM    153  CD2 LEU A 161     -18.865   0.930  15.545  1.00 27.75     0.009 C 
ATOM    154  CD1 LEU A 161     -17.265   0.311  13.768  1.00 18.59     0.009 C 
ENDBRANCH 151 152
ENDBRANCH 150 151
END_RES LEU A 161
BEGIN_RES GLN A 168
REMARK  3 active torsions:
REMARK  status: ('A' for Active; 'I' for Inactive)
REMARK   48  A    between atoms: CA   and  CB  
REMARK   49  A    between atoms: CB   and  CG  
REMARK   50  A    between atoms: CG   and  CD  
REMARK       I    between atoms: CD   and  NE2 
ROOT
ATOM    155  CA  GLN A 168     -22.035  -6.020   8.155  1.00 30.94     0.177 C 
ENDROOT
BRANCH 155 156
ATOM    156  CB  GLN A 168     -23.054  -5.218   8.946  1.00 41.76     0.044 C 
BRANCH 156 157
ATOM    157  CG  GLN A 168     -24.488  -5.552   8.636  1.00 61.20     0.105 C 
BRANCH 157 158
ATOM    158  CD  GLN A 168     -25.135  -4.503   7.752  1.00 75.49     0.215 C 
ATOM    159  NE2 GLN A 168     -24.808  -4.539   6.459  1.00 85.00    -0.370 N 
ATOM    160  H06 GLN A 168     -25.204  -3.864   5.820  1.00 85.00     0.159 HD
ATOM    161  H07 GLN A 168     -24.165  -5.240   6.120  1.00 85.00     0.159 HD
ATOM    162  OE1 GLN A 168     -25.915  -3.664   8.223  1.00 73.64    -0.274 OA
ENDBRANCH 157 158
ENDBRANCH 156 157
ENDBRANCH 155 156
END_RES GLN A 168
ENDMDL
MODEL 2
REMARK VINA RESULT:      -8.2      1.272      1.994
REMARK  Name = human_CD1d_tritonX_pred.rank_0
REMARK  32 active torsions:
REMARK  status: ('A' for Active; 'I' for Inactive)
REMARK    1  A    between atoms: O_2  and  C_21
REMARK    2  A    between atoms: O_2  and  C_23
REMARK    3  A    between atoms: C_3  and  C_5
REMARK    4  A    between atoms: C_3  and  C_15
REMARK    5  A    between atoms: O_4  and  C_24
REMARK    6  A    between atoms: O_4  and  C_25
REMARK    7  A    between atoms: O_6  and  C_26
REMARK    8  A    between atoms: O_6  and  C_27
REMARK    9  A    between atoms: O_8  and  C_28
REMARK   10  A    between atoms: O_8  and  C_29
REMARK   11  A    between atoms: O_10  and  C_30
REMARK   12  A    between atoms: O_10  and  C_31
REMARK   13  A    between atoms: O_12  and  C_32
REMARK   14  A    between atoms: O_12  and  C_33
REMARK   15  A    between atoms: O_14  and  C_34
REMARK   16  A    between atoms: O_14  and  C_35
REMARK   17  A    between atoms: O_16  and  C_36
REMARK   18  A    between atoms: O_16  and  C_37
REMARK   19  A    between atoms: O_18  and  C_38
REMARK   20  A    between atoms: O_18  and  C_39
REMARK   21  A    between atoms: O_20  and  C_40
REMARK   22  A    between atoms: O_20  and  C_41
REMARK   23  A    between atoms: C_23  and  C_24
REMARK   24  A    between atoms: C_25  and  C_26
REMARK   25  A    between atoms: C_27  and  C_28
REMARK   26  A    between atoms: C_29  and  C_30
REMARK   27  A    between atoms: C_31  and  C_32
REMARK   28  A    between atoms: C_33  and  C_34
REMARK   29  A    between atoms: C_35  and  C_36
REMARK   30  A    between atoms: C_37  and  C_38
REMARK   31  A    between atoms: C_39  and  C_40
REMARK   32  A    between atoms: C_41  and  C_42
REMARK                            x       y       z     vdW  Elec       q    Type
REMARK                         _______ _______ _______ _____ _____    ______ ____
ROOT
ATOM      1  O   UNL     1      -9.268   5.900  17.585  0.00  0.00    +0.000 OA
ENDROOT
BRANCH   1   2
ATOM      2  C   UNL     1     -10.290   6.438  18.435  0.00  0.00    +0.000 C 
BRANCH   2   3
ATOM      3  C   UNL     1     -10.360   5.629  19.722  0.00  0.00    +0.000 C 
BRANCH   3   4
ATOM      4  O   UNL     1     -10.650   6.428  20.849  0.00  0.00    +0.000 OA
BRANCH   4   5
ATOM      5  C   UNL     1     -10.046   6.073  22.081  0.00  0.00    +0.000 C 
BRANCH   5   6
ATOM      6  C   UNL     1      -9.761   4.577  22.164  0.00  0.00    +0.000 C 
BRANCH   6   7
ATOM      7  O   UNL     1      -8.370   4.361  22.375  0.00  0.00    +0.000 OA
BRANCH   7   8
ATOM      8  C   UNL     1      -7.752   3.411  21.487  0.00  0.00    +0.000 C 
BRANCH   8   9
ATOM      9  C   UNL     1      -6.249   3.348  21.761  0.00  0.00    +0.000 C 
BRANCH   9  10
ATOM     10  O   UNL     1      -5.927   3.931  23.032  0.00  0.00    +0.000 OA
BRANCH  10  14
ATOM     11  C   UNL     1      -2.017   4.402  24.252  0.00  0.00    +0.000 A 
ATOM     12  C   UNL     1      -3.099   4.422  25.155  0.00  0.00    +0.000 A 
ATOM     13  C   UNL     1      -4.388   4.273  24.744  0.00  0.00    +0.000 A 
ATOM     14  C   UNL     1      -4.615   4.045  23.412  0.00  0.00    +0.000 A 
ATOM     15  C   UNL     1      -3.604   4.004  22.500  0.00  0.00    +0.000 A 
ATOM     16  C   UNL     1      -2.315   4.165  22.890  0.00  0.00    +0.000 A 
BRANCH  11  18
ATOM     17  C   UNL     1      -0.272   3.601  25.774  0.00  0.00    +0.000 C 
ATOM     18  C   UNL     1      -0.581   4.591  24.673  0.00  0.00    +0.000 C 
ATOM     19  C   UNL     1       0.255   4.265  23.472  0.00  0.00    +0.000 C 
BRANCH  18  20
ATOM     20  C   UNL     1      -0.241   6.029  25.126  0.00  0.00    +0.000 C 
ATOM     21  C   UNL     1      -0.340   6.140  26.637  0.00  0.00    +0.000 C 
ATOM     22  C   UNL     1      -1.191   7.020  24.555  0.00  0.00    +0.000 C 
ATOM     23  C   UNL     1       1.173   6.391  24.747  0.00  0.00    +0.000 C 
ENDBRANCH  18  20
ENDBRANCH  11  18
ENDBRANCH  10  14
ENDBRANCH   9  10
ENDBRANCH   8   9
ENDBRANCH   7   8
ENDBRANCH   6   7
ENDBRANCH   5   6
ENDBRANCH   4   5
ENDBRANCH   3   4
ENDBRANCH   2   3
ENDBRANCH   1   2
BRANCH   1  24
ATOM     24  C   UNL     1      -9.405   6.337  16.213  0.00  0.00    +0.000 C 
BRANCH  24  25
ATOM     25  C   UNL     1      -8.199   5.943  15.390  0.00  0.00    +0.000 C 
BRANCH  25  26
ATOM     26  O   UNL     1      -8.429   4.694  14.725  0.00  0.00    +0.000 OA
BRANCH  26  27
ATOM     27  C   UNL     1      -9.105   4.844  13.485  0.00  0.00    +0.000 C 
BRANCH  27  28
ATOM     28  C   UNL     1      -9.077   3.561  12.670  0.00  0.00    +0.000 C 
BRANCH  28  29
ATOM     29  O   UNL     1      -8.467   3.768  11.397  0.00  0.00    +0.000 OA
BRANCH  29  30
ATOM     30  C   UNL     1      -9.065   4.741  10.600  0.00  0.00    +0.000 C 
BRANCH  30  31
ATOM     31  C   UNL     1      -9.382   4.203   9.226  0.00  0.00    +0.000 C 
BRANCH  31  32
ATOM     32  O   UNL     1      -9.036   5.113   8.201  0.00  0.00    +0.000 OA
BRANCH  32  33
ATOM     33  C   UNL     1     -10.131   5.803   7.598  0.00  0.00    +0.000 C 
BRANCH  33  34
ATOM     34  C   UNL     1     -10.734   4.970   6.496  0.00  0.00    +0.000 C 
BRANCH  34  35
ATOM     35  O   UNL     1     -12.124   5.164   6.395  0.00  0.00    +0.000 OA
BRANCH  35  36
ATOM     36  C   UNL     1     -12.908   4.062   6.713  0.00  0.00    +0.000 C 
BRANCH  36  37
ATOM     37  C   UNL     1     -14.334   4.283   6.261  0.00  0.00    +0.000 C 
BRANCH  37  38
ATOM     38  O   UNL     1     -15.273   4.008   7.323  0.00  0.00    +0.000 OA
BRANCH  38  39
ATOM     39  C   UNL     1     -15.364   2.621   7.657  0.00  0.00    +0.000 C 
BRANCH  39  40
ATOM     40  C   UNL     1     -15.319   2.394   9.151  0.00  0.00    +0.000 C 
BRANCH  40  41
ATOM     41  O   UNL     1     -14.836   1.104   9.496  0.00  0.00    +0.000 OA
BRANCH  41  42
ATOM     42  C   UNL     1     -15.186   0.683  10.816  0.00  0.00    +0.000 C 
BRANCH  42  44
ATOM     43  O   UNL     1     -15.722  -1.250   9.524  0.00  0.00    +0.000 OA
ATOM     44  C   UNL     1     -15.554  -0.788  10.841  0.00  0.00    +0.000 C 
ENDBRANCH  42  44
ENDBRANCH  41  42
ENDBRANCH  40  41
ENDBRANCH  39  40
ENDBRANCH  38  39
ENDBRANCH  37  38
ENDBRANCH  36  37
ENDBRANCH  35  36
ENDBRANCH  34  35
ENDBRANCH  33  34
ENDBRANCH  32  33
ENDBRANCH  31  32
ENDBRANCH  30  31
ENDBRANCH  29  30
ENDBRANCH  28  29
ENDBRANCH  27  28
ENDBRANCH  26  27
ENDBRANCH  25  26
ENDBRANCH  24  25
ENDBRANCH   1  24
TORSDOF 32
BEGIN_RES LEU A  10
REMARK  2 active torsions:
REMARK  status: ('A' for Active; 'I' for Inactive)
REMARK    1  A    between atoms: CA   and  CB  
REMARK    2  A    between atoms: CB   and  CG  
ROOT
ATOM      1  CA  LEU A  10     -10.775  -4.871   5.898  1.00 25.14     0.177 C 
ENDROOT
BRANCH   1   2
ATOM      2  CB  LEU A  10     -12.191  -4.387   6.226  1.00 17.87     0.038 C 
BRANCH   2   3
ATOM      3  CG  LEU A  10     -12.374  -2.870   6.151  1.00 24.95    -0.020 C 
ATOM      4  CD2 LEU A  10     -13.604  -2.491   6.905  1.00 26.38     0.009 C 
ATOM      5  CD1 LEU A  10     -12.466  -2.404   4.708  1.00 28.12     0.009 C 
ENDBRANCH   2   3
ENDBRANCH   1   2
END_RES LEU A  10
BEGIN_RES CYS A  12
REMARK  2 active torsions:
REMARK  status: ('A' for Active; 'I' for Inactive)
REMARK    3  A    between atoms: CA   and  CB  
REMARK    4  A    between atoms: CB   and  SG  
ROOT
ATOM      6  CA  CYS A  12      -8.555   0.470   8.750  1.00 23.16     0.185 C 
ENDROOT
BRANCH   6   7
ATOM      7  CB  CYS A  12      -9.828   0.763   9.555  1.00 20.43     0.105 C 
BRANCH   7   8
ATOM      8  SG  CYS A  12     -11.360   0.945   8.591  1.00 24.64    -0.180 SA
ATOM      9  H04 CYS A  12     -12.179  -0.081   8.854  1.00 24.64     0.101 HD
ENDBRANCH   7   8
ENDBRANCH   6   7
END_RES CYS A  12
BEGIN_RES GLN A  14
REMARK  3 active torsions:
REMARK  status: ('A' for Active; 'I' for Inactive)
REMARK    5  A    between atoms: CA   and  CB  
REMARK    6  A    between atoms: CB   and  CG  
REMARK    7  A    between atoms: CG   and  CD  
REMARK       I    between atoms: CD   and  NE2 
ROOT
ATOM     10  CA  GLN A  14      -4.645   5.402  11.377  1.00 10.43     0.177 C 
ENDROOT
BRANCH  10  11
ATOM     11  CB  GLN A  14      -5.541   5.549  12.608  1.00 14.45     0.044 C 
BRANCH  11  12
ATOM     12  CG  GLN A  14      -5.622   6.959  13.147  1.00 13.74     0.105 C 
BRANCH  12  13
ATOM     13  CD  GLN A  14      -6.173   7.933  12.134  1.00 16.29     0.215 C 
ATOM     14  NE2 GLN A  14      -7.119   7.481  11.340  1.00  8.57    -0.370 N 
ATOM     15  H06 GLN A  14      -7.527   8.088  10.643  1.00  8.57     0.159 HD
ATOM     16  H07 GLN A  14      -7.438   6.527  11.427  1.00  8.57     0.159 HD
ATOM     17  OE1 GLN A  14      -5.755   9.079  12.069  1.00 23.55    -0.274 OA
ENDBRANCH  12  13
ENDBRANCH  11  12
ENDBRANCH  10  11
END_RES GLN A  14
BEGIN_RES SER A  16
REMARK  2 active torsions:
REMARK  status: ('A' for Active; 'I' for Inactive)
REMARK    8  A    between atoms: CA   and  CB  
REMARK    9  A    between atoms: CB   and  OG  
ROOT
ATOM     18  CA  SER A  16      -1.305  10.019  14.282  1.00  2.34     0.200 C 
ENDROOT
BRANCH  18  19
ATOM     19  CB  SER A  16      -2.242   9.935  15.479  1.00  3.12     0.199 C 
BRANCH  19  20
ATOM     20  OG  SER A  16      -3.455   9.302  15.112  1.00  1.00    -0.398 OA
ATOM     21  H04 SER A  16      -3.550   8.483  15.604  1.00  1.00     0.209 HD
ENDBRANCH  19  20
ENDBRANCH  18  19
END_RES SER A  16
BEGIN_RES LEU A  32
REMARK  2 active torsions:
REMARK  status: ('A' for Active; 'I' for Inactive)
REMARK   10  A    between atoms: CA   and  CB  
REMARK   11  A    between atoms: CB   and  CG  
ROOT
ATOM     22  CA  LEU A  32     -10.272  -4.106   1.587  1.00 16.16     0.177 C 
ENDROOT
BRANCH  22  23
ATOM     23  CB  LEU A  32     -11.613  -3.858   0.880  1.00 12.35     0.038 C 
BRANCH  23  24
ATOM     24  CG  LEU A  32     -12.579  -5.049   1.046  1.00  9.77    -0.020 C 
ATOM     25  CD1 LEU A  32     -13.033  -5.161   2.482  1.00  4.35     0.009 C 
ATOM     26  CD2 LEU A  32     -13.776  -4.899   0.144  1.00 10.60     0.009 C 
ENDBRANCH  23  24
ENDBRANCH  22  23
END_RES LEU A  32
BEGIN_RES HIS A  38
REMARK  2 active torsions:
REMARK  status: ('A' for Active; 'I' for Inactive)
REMARK   12  A    between atoms: CA   and  CB  
REMARK   13  A    between atoms: CB   and  CG  
ROOT
ATOM     27  CA  HIS A  38     -10.959   4.941   1.621  1.00 16.94     0.182 C 
ENDROOT
BRANCH  27  28
ATOM     28  CB  HIS A  38     -11.810   4.840   2.881  1.00 15.47     0.095 C 
BRANCH  28  29
ATOM     29  CG  HIS A  38     -12.979   3.918   2.748  1.00 18.62     0.053 A 
ATOM     30  CD2 HIS A  38     -14.154   4.062   2.090  1.00 15.06     0.116 A 
ATOM     31  NE2 HIS A  38     -14.859   2.899   2.268  1.00 18.12    -0.359 N 
ATOM     32  CE1 HIS A  38     -14.146   2.072   3.008  1.00 14.78     0.207 A 
ATOM     33  H06 HIS A  38     -15.777   2.708   1.892  1.00 18.12     0.166 HD
ATOM     34  ND1 HIS A  38     -13.008   2.662   3.312  1.00 16.58    -0.247 NA
ENDBRANCH  28  29
ENDBRANCH  27  28
END_RES HIS A  38
BEGIN_RES TRP A  63
REMARK  2 active torsions:
REMARK  status: ('A' for Active; 'I' for Inactive)
REMARK   14  A    between atoms: CA   and  CB  
REMARK   15  A    between atoms: CB   and  CG  
ROOT
ATOM     35  CA  TRP A  63     -22.437   6.257   6.543  1.00 27.04     0.181 C 
ENDROOT
BRANCH  35  36
ATOM     36  CB  TRP A  63     -22.360   6.642   5.068  1.00 31.37     0.075 C 
BRANCH  36  37
ATOM     37  CG  TRP A  63     -20.954   6.727   4.513  1.00 34.37    -0.028 A 
ATOM     38  CD2 TRP A  63     -19.904   5.761   4.657  1.00 33.79    -0.002 A 
ATOM     39  CE3 TRP A  63     -19.786   4.547   5.337  1.00 32.99     0.014 A 
ATOM     40  CE2 TRP A  63     -18.799   6.232   3.914  1.00 35.84     0.042 A 
ATOM     41  CZ3 TRP A  63     -18.589   3.851   5.258  1.00 32.93     0.001 A 
ATOM     42  CH2 TRP A  63     -17.508   4.346   4.511  1.00 39.24     0.002 A 
ATOM     43  CZ2 TRP A  63     -17.594   5.532   3.833  1.00 37.99     0.030 A 
ATOM     44  NE1 TRP A  63     -19.164   7.424   3.351  1.00 37.98    -0.365 N 
ATOM     45  H06 TRP A  63     -18.579   7.998   2.761  1.00 37.98     0.165 HD
ATOM     46  CD1 TRP A  63     -20.457   7.712   3.718  1.00 38.16     0.096 A 
ENDBRANCH  36  37
ENDBRANCH  35  36
END_RES TRP A  63
BEGIN_RES LEU A  66
REMARK  2 active torsions:
REMARK  status: ('A' for Active; 'I' for Inactive)
REMARK   16  A    between atoms: CA   and  CB  
REMARK   17  A    between atoms: CB   and  CG  
ROOT
ATOM     47  CA  LEU A  66     -20.004   6.489  11.120  1.00 10.90     0.177 C 
ENDROOT
BRANCH  47  48
ATOM     48  CB  LEU A  66     -19.626   5.453  10.069  1.00 13.57     0.038 C 
BRANCH  48  49
ATOM     49  CG  LEU A  66     -19.394   4.021  10.550  1.00  8.73    -0.020 C 
ATOM     50  CD1 LEU A  66     -19.288   3.976  12.052  1.00 14.23     0.009 C 
ATOM     51  CD2 LEU A  66     -20.548   3.169  10.087  1.00  1.92     0.009 C 
ENDBRANCH  48  49
ENDBRANCH  47  48
END_RES LEU A  66
BEGIN_RES PHE A  70
REMARK  2 active torsions:
REMARK  status: ('A' for Active; 'I' for Inactive)
REMARK   18  A    between atoms: CA   and  CB  
REMARK   19  A    between atoms: CB   and  CG  
ROOT
ATOM     52  CA  PHE A  70     -14.974   9.434  13.165  1.00  8.78     0.180 C 
ENDROOT
BRANCH  52  53
ATOM     53  CB  PHE A  70     -14.707   9.132  11.681  1.00  6.33     0.073 C 
BRANCH  53  54
ATOM     54  CG  PHE A  70     -13.994   7.827  11.455  1.00  3.42    -0.056 A 
ATOM     55  CD1 PHE A  70     -13.504   7.085  12.520  1.00 13.88     0.007 A 
ATOM     56  CE1 PHE A  70     -12.797   5.890  12.299  1.00 12.71     0.001 A 
ATOM     57  CZ  PHE A  70     -12.580   5.433  10.998  1.00  4.21     0.000 A 
ATOM     58  CE2 PHE A  70     -13.065   6.163   9.929  1.00  2.83     0.001 A 
ATOM     59  CD2 PHE A  70     -13.770   7.356  10.160  1.00  1.00     0.007 A 
ENDBRANCH  53  54
ENDBRANCH  52  53
END_RES PHE A  70
BEGIN_RES TYR A  73
REMARK  3 active torsions:
REMARK  status: ('A' for Active; 'I' for Inactive)
REMARK   20  A    between atoms: CA   and  CB  
REMARK   21  A    between atoms: CB   and  CG  
REMARK   22  A    between atoms: CZ   and  OH  
ROOT
ATOM     60  CA  TYR A  73     -13.212  10.166  17.260  1.00 12.17     0.180 C 
ENDROOT
BRANCH  60  61
ATOM     61  CB  TYR A  73     -13.301   8.846  16.517  1.00 12.84     0.073 C 
BRANCH  61  62
ATOM     62  CG  TYR A  73     -13.585   7.691  17.412  1.00 15.89    -0.056 A 
ATOM     63  CD1 TYR A  73     -13.723   7.862  18.772  1.00 16.00     0.010 A 
ATOM     64  CE1 TYR A  73     -13.958   6.776  19.616  1.00 13.55     0.037 A 
ATOM     65  CZ  TYR A  73     -14.053   5.509  19.077  1.00 18.13     0.065 A 
ATOM     66  CE2 TYR A  73     -13.920   5.311  17.723  1.00 15.89     0.037 A 
ATOM     67  CD2 TYR A  73     -13.687   6.403  16.897  1.00 21.86     0.010 A 
BRANCH  65  68
ATOM     68  OH  TYR A  73     -14.290   4.426  19.889  1.00 12.12    -0.361 OA
ATOM     69  H08 TYR A  73     -13.998   3.625  19.448  1.00 12.12     0.217 HD
ENDBRANCH  65  68
ENDBRANCH  61  62
ENDBRANCH  60  61
END_RES TYR A  73
BEGIN_RES PHE A  77
REMARK  2 active torsions:
REMARK  status: ('A' for Active; 'I' for Inactive)
REMARK   23  A    between atoms: CA   and  CB  
REMARK   24  A    between atoms: CB   and  CG  
ROOT
ATOM     70  CA  PHE A  77      -8.400  10.581  20.110  1.00 17.17     0.180 C 
ENDROOT
BRANCH  70  71
ATOM     71  CB  PHE A  77      -8.228   9.750  18.851  1.00 10.44     0.073 C 
BRANCH  71  72
ATOM     72  CG  PHE A  77      -7.339   8.560  19.031  1.00  6.07    -0.056 A 
ATOM     73  CD2 PHE A  77      -7.321   7.874  20.224  1.00  9.61     0.007 A 
ATOM     74  CE2 PHE A  77      -6.499   6.766  20.399  1.00  1.00     0.001 A 
ATOM     75  CZ  PHE A  77      -5.686   6.339  19.364  1.00  1.92     0.000 A 
ATOM     76  CE1 PHE A  77      -5.693   7.013  18.164  1.00  9.25     0.001 A 
ATOM     77  CD1 PHE A  77      -6.520   8.124  18.002  1.00  9.63     0.007 A 
ENDBRANCH  71  72
ENDBRANCH  70  71
END_RES PHE A  77
BEGIN_RES LEU A  96
REMARK  2 active torsions:
REMARK  status: ('A' for Active; 'I' for Inactive)
REMARK   25  A    between atoms: CA   and  CB  
REMARK   26  A    between atoms: CB   and  CG  
ROOT
ATOM     78  CA  LEU A  96       0.717   6.481  17.359  1.00 16.08     0.177 C 
ENDROOT
BRANCH  78  79
ATOM     79  CB  LEU A  96      -0.370   7.101  18.230  1.00 18.83     0.038 C 
BRANCH  79  80
ATOM     80  CG  LEU A  96      -0.949   6.161  19.287  1.00 19.03    -0.020 C 
ATOM     81  CD1 LEU A  96       0.175   5.665  20.167  1.00 28.17     0.009 C 
ATOM     82  CD2 LEU A  96      -1.947   6.894  20.154  1.00 22.01     0.009 C 
ENDBRANCH  79  80
ENDBRANCH  78  79
END_RES LEU A  96
BEGIN_RES VAL A  98
REMARK  1 active torsions:
REMARK  status: ('A' for Active; 'I' for Inactive)
REMARK   27  A    between atoms: CA   and  CB  
ROOT
ATOM     83  CA  VAL A  98      -3.928   2.082  14.897  1.00 19.83     0.180 C 
ENDROOT
BRANCH  83  84
ATOM     84  CB  VAL A  98      -5.203   2.807  15.281  1.00 17.87     0.009 C 
ATOM     85  CG2 VAL A  98      -4.904   4.252  15.585  1.00 29.90     0.012 C 
ATOM     86  CG1 VAL A  98      -5.833   2.125  16.477  1.00 14.79     0.012 C 
ENDBRANCH  83  84
END_RES VAL A  98
BEGIN_RES ASN A 112
REMARK  2 active torsions:
REMARK  status: ('A' for Active; 'I' for Inactive)
REMARK   28  A    between atoms: CA   and  CB  
REMARK   29  A    between atoms: CB   and  CG  
REMARK       I    between atoms: CG   and  ND2 
ROOT
ATOM     87  CA  ASN A 112     -11.790  -8.793  14.069  1.00 37.70     0.185 C 
ENDROOT
BRANCH  87  88
ATOM     88  CB  ASN A 112     -12.992  -7.945  14.465  1.00 26.24     0.137 C 
BRANCH  88  89
ATOM     89  CG  ASN A 112     -13.823  -8.571  15.563  1.00 21.77     0.217 C 
ATOM     90  ND2 ASN A 112     -14.977  -9.120  15.186  1.00  9.31    -0.370 N 
ATOM     91  H04 ASN A 112     -15.579  -9.553  15.872  1.00  9.31     0.159 HD
ATOM     92  H05 ASN A 112     -15.250  -9.104  14.213  1.00  9.31     0.159 HD
ATOM     93  OD1 ASN A 112     -13.438  -8.558  16.738  1.00 21.61    -0.274 OA
ENDBRANCH  88  89
ENDBRANCH  87  88
END_RES ASN A 112
BEGIN_RES PHE A 114
REMARK  2 active torsions:
REMARK  status: ('A' for Active; 'I' for Inactive)
REMARK   30  A    between atoms: CA   and  CB  
REMARK   31  A    between atoms: CB   and  CG  
ROOT
ATOM     94  CA  PHE A 114      -7.754  -3.619  17.012  1.00 26.06     0.180 C 
ENDROOT
BRANCH  94  95
ATOM     95  CB  PHE A 114      -8.890  -3.080  17.867  1.00 19.95     0.073 C 
BRANCH  95  96
ATOM     96  CG  PHE A 114      -9.220  -1.651  17.580  1.00 17.65    -0.056 A 
ATOM     97  CD1 PHE A 114      -8.215  -0.693  17.482  1.00 13.01     0.007 A 
ATOM     98  CE1 PHE A 114      -8.523   0.640  17.244  1.00  6.74     0.001 A 
ATOM     99  CZ  PHE A 114      -9.851   1.034  17.099  1.00  6.27     0.000 A 
ATOM    100  CE2 PHE A 114     -10.859   0.089  17.194  1.00 17.36     0.001 A 
ATOM    101  CD2 PHE A 114     -10.542  -1.252  17.434  1.00 18.39     0.007 A 
ENDBRANCH  95  96
ENDBRANCH  94  95
END_RES PHE A 114
BEGIN_RES VAL A 116
REMARK  1 active torsions:
REMARK  status: ('A' for Active; 'I' for Inactive)
REMARK   32  A    between atoms: CA   and  CB  
ROOT
ATOM    102  CA  VAL A 116      -2.467   0.283  18.565  1.00 13.48     0.180 C 
ENDROOT
BRANCH 102 103
ATOM    103  CB  VAL A 116      -3.101   1.238  19.599  1.00 20.86     0.009 C 
ATOM    104  CG1 VAL A 116      -3.089   2.667  19.050  1.00 25.01     0.012 C 
ATOM    105  CG2 VAL A 116      -4.499   0.792  19.958  1.00 25.34     0.012 C 
ENDBRANCH 102 103
END_RES VAL A 116
BEGIN_RES ILE A 123
REMARK  2 active torsions:
REMARK  status: ('A' for Active; 'I' for Inactive)
REMARK   33  A    between atoms: CA   and  CB  
REMARK   34  A    between atoms: CB   and  CG1 
ROOT
ATOM    106  CA  ILE A 123       1.557  -1.626  23.222  1.00 15.07     0.180 C 
ENDROOT
BRANCH 106 107
ATOM    107  CB  ILE A 123       1.697  -0.112  23.461  1.00 14.41     0.013 C 
ATOM    108  CG2 ILE A 123       3.076   0.198  24.017  1.00 18.35     0.012 C 
BRANCH 107 109
ATOM    109  CG1 ILE A 123       1.468   0.653  22.160  1.00 15.23     0.002 C 
ATOM    110  CD1 ILE A 123       0.122   1.333  22.086  1.00 14.67     0.005 C 
ENDBRANCH 107 109
ENDBRANCH 106 107
END_RES ILE A 123
BEGIN_RES LEU A 124
REMARK  2 active torsions:
REMARK  status: ('A' for Active; 'I' for Inactive)
REMARK   35  A    between atoms: CA   and  CB  
REMARK   36  A    between atoms: CB   and  CG  
ROOT
ATOM    111  CA  LEU A 124      -2.057  -2.686  23.524  1.00 11.86     0.177 C 
ENDROOT
BRANCH 111 112
ATOM    112  CB  LEU A 124      -2.698  -1.652  24.429  1.00 14.60     0.038 C 
BRANCH 112 113
ATOM    113  CG  LEU A 124      -2.636  -0.254  23.833  1.00 16.19    -0.020 C 
ATOM    114  CD1 LEU A 124      -4.062   0.202  23.472  1.00 22.07     0.009 C 
ATOM    115  CD2 LEU A 124      -1.979   0.683  24.816  1.00  9.12     0.009 C 
ENDBRANCH 112 113
ENDBRANCH 111 112
END_RES LEU A 124
BEGIN_RES PHE A 126
REMARK  2 active torsions:
REMARK  status: ('A' for Active; 'I' for Inactive)
REMARK   37  A    between atoms: CA   and  CB  
REMARK   38  A    between atoms: CB   and  CG  
ROOT
ATOM    116  CA  PHE A 126      -8.784  -4.792  22.233  1.00 23.15     0.180 C 
ENDROOT
BRANCH 116 117
ATOM    117  CB  PHE A 126      -9.823  -4.011  21.461  1.00 20.65     0.073 C 
BRANCH 117 118
ATOM    118  CG  PHE A 126     -10.953  -3.550  22.295  1.00 23.65    -0.056 A 
ATOM    119  CD2 PHE A 126     -10.775  -2.550  23.236  1.00 36.63     0.007 A 
ATOM    120  CE2 PHE A 126     -11.847  -2.113  24.025  1.00 36.27     0.001 A 
ATOM    121  CZ  PHE A 126     -13.101  -2.684  23.865  1.00 18.06     0.000 A 
ATOM    122  CE1 PHE A 126     -13.283  -3.680  22.927  1.00  5.50     0.001 A 
ATOM    123  CD1 PHE A 126     -12.211  -4.107  22.144  1.00 15.29     0.007 A 
ENDBRANCH 117 118
ENDBRANCH 116 117
END_RES PHE A 126
BEGIN_RES TRP A 131
REMARK  2 active torsions:
REMARK  status: ('A' for Active; 'I' for Inactive)
REMARK   39  A    between atoms: CA   and  CB  
REMARK   40  A    between atoms: CB   and  CG  
ROOT
ATOM    124  CA  TRP A 131      -8.096  -3.335  26.542  1.00 14.52     0.181 C 
ENDROOT
BRANCH 124 125
ATOM    125  CB  TRP A 131      -7.651  -1.877  26.607  1.00 13.06     0.075 C 
BRANCH 125 126
ATOM    126  CG  TRP A 131      -8.051  -1.051  25.404  1.00 16.97    -0.028 A 
ATOM    127  CD2 TRP A 131      -9.146  -0.135  25.326  1.00 11.34    -0.002 A 
ATOM    128  CE2 TRP A 131      -9.145   0.416  24.029  1.00  5.87     0.042 A 
ATOM    129  CE3 TRP A 131     -10.130   0.273  26.233  1.00  3.80     0.014 A 
ATOM    130  CZ2 TRP A 131     -10.090   1.356  23.617  1.00  1.35     0.030 A 
ATOM    131  NE1 TRP A 131      -8.099  -0.141  23.347  1.00 13.90    -0.365 N 
ATOM    132  CH2 TRP A 131     -11.044   1.739  24.527  1.00  1.00     0.002 A 
ATOM    133  CZ3 TRP A 131     -11.071   1.204  25.828  1.00  1.00     0.001 A 
ATOM    134  CD1 TRP A 131      -7.445  -1.021  24.178  1.00 17.22     0.096 A 
ATOM    135  H07 TRP A 131      -7.847   0.060  22.390  1.00 13.90     0.165 HD
ENDBRANCH 125 126
ENDBRANCH 124 125
END_RES TRP A 131
BEGIN_RES LEU A 148
REMARK  2 active torsions:
REMARK  status: ('A' for Active; 'I' for Inactive)
REMARK   41  A    between atoms: CA   and  CB  
REMARK   42  A    between atoms: CB   and  CG  
ROOT
ATOM    136  CA  LEU A 148      -9.018   3.259  29.295  1.00 16.99     0.177 C 
ENDROOT
BRANCH 136 137
ATOM    137  CB  LEU A 148      -8.166   2.574  28.236  1.00  6.39     0.038 C 
BRANCH 137 138
ATOM    138  CG  LEU A 148      -8.013   3.168  26.851  1.00  1.00    -0.020 C 
ATOM    139  CD2 LEU A 148      -6.898   2.487  26.112  1.00  1.00     0.009 C 
ATOM    140  CD1 LEU A 148      -7.728   4.651  26.998  1.00  2.71     0.009 C 
ENDBRANCH 137 138
ENDBRANCH 136 137
END_RES LEU A 148
BEGIN_RES THR A 154
REMARK  2 active torsions:
REMARK  status: ('A' for Active; 'I' for Inactive)
REMARK   43  A    between atoms: CA   and  CB  
REMARK   44  A    between atoms: CB   and  OG1 
ROOT
ATOM    141  CA  THR A 154     -15.990   3.959  24.426  1.00 20.45     0.205 C 
ENDROOT
BRANCH 141 142
ATOM    142  CB  THR A 154     -14.777   4.829  24.694  1.00 16.79     0.146 C 
ATOM    143  CG2 THR A 154     -13.637   4.436  23.774  1.00 20.24     0.042 C 
BRANCH 142 144
ATOM    144  OG1 THR A 154     -15.122   6.197  24.444  1.00 18.84    -0.393 OA
ATOM    145  H06 THR A 154     -14.994   6.712  25.244  1.00 18.84     0.210 HD
ENDBRANCH 142 144
ENDBRANCH 141 142
END_RES THR A 154
BEGIN_RES VAL A 158
REMARK  1 active torsions:
REMARK  status: ('A' for Active; 'I' for Inactive)
REMARK   45  A    between atoms: CA   and  CB  
ROOT
ATOM    146  CA  VAL A 158     -15.487  -0.189  19.892  1.00 15.49     0.180 C 
ENDROOT
BRANCH 146 147
ATOM    147  CB  VAL A 158     -14.291  -0.273  20.822  1.00  6.52     0.009 C 
ATOM    148  CG1 VAL A 158     -13.249  -1.222  20.276  1.00  1.00     0.012 C 
ATOM    149  CG2 VAL A 158     -13.719   1.100  20.993  1.00  5.99     0.012 C 
ENDBRANCH 146 147
END_RES VAL A 158
BEGIN_RES LEU A 161
REMARK  2 active torsions:
REMARK  status: ('A' for Active; 'I' for Inactive)
REMARK   46  A    between atoms: CA   and  CB  
REMARK   47  A    between atoms: CB   and  CG  
ROOT
ATOM    150  CA  LEU A 161     -18.031  -1.858  15.935  1.00 13.31     0.177 C 
ENDROOT
BRANCH 150 151
ATOM    151  CB  LEU A 161     -17.046  -0.706  16.001  1.00 14.13     0.038 C 
BRANCH 151 152
ATOM    152  CG  LEU A 161     -17.522   0.623  15.427  1.00 19.39    -0.020 C 
ATOM    153  CD2 LEU A 161     -17.485   0.583  13.918  1.00 27.75     0.009 C 
ATOM    154  CD1 LEU A 161     -16.628   1.721  15.936  1.00 18.59     0.009 C 
ENDBRANCH 151 152
ENDBRANCH 150 151
END_RES LEU A 161
BEGIN_RES GLN A 168
REMARK  3 active torsions:
REMARK  status: ('A' for Active; 'I' for Inactive)
REMARK   48  A    between atoms: CA   and  CB  
REMARK   49  A    between atoms: CB   and  CG  
REMARK   50  A    between atoms: CG   and  CD  
REMARK       I    between atoms: CD   and  NE2 
ROOT
ATOM    155  CA  GLN A 168     -22.035  -6.020   8.155  1.00 30.94     0.177 C 
ENDROOT
BRANCH 155 156
ATOM    156  CB  GLN A 168     -23.054  -5.218   8.946  1.00 41.76     0.044 C 
BRANCH 156 157
ATOM    157  CG  GLN A 168     -24.450  -5.779   8.914  1.00 61.20     0.105 C 
BRANCH 157 158
ATOM    158  CD  GLN A 168     -25.311  -5.093   7.871  1.00 75.49     0.215 C 
ATOM    159  NE2 GLN A 168     -26.527  -5.607   7.679  1.00 85.00    -0.370 N 
ATOM    160  H06 GLN A 168     -27.147  -5.196   6.996  1.00 85.00     0.159 HD
ATOM    161  H07 GLN A 168     -26.827  -6.408   8.218  1.00 85.00     0.159 HD
ATOM    162  OE1 GLN A 168     -24.890  -4.115   7.238  1.00 73.64    -0.274 OA
ENDBRANCH 157 158
ENDBRANCH 156 157
ENDBRANCH 155 156
END_RES GLN A 168
ENDMDL
MODEL 3
REMARK VINA RESULT:      -8.2      1.955      4.439
REMARK  Name = human_CD1d_tritonX_pred.rank_0
REMARK  32 active torsions:
REMARK  status: ('A' for Active; 'I' for Inactive)
REMARK    1  A    between atoms: O_2  and  C_21
REMARK    2  A    between atoms: O_2  and  C_23
REMARK    3  A    between atoms: C_3  and  C_5
REMARK    4  A    between atoms: C_3  and  C_15
REMARK    5  A    between atoms: O_4  and  C_24
REMARK    6  A    between atoms: O_4  and  C_25
REMARK    7  A    between atoms: O_6  and  C_26
REMARK    8  A    between atoms: O_6  and  C_27
REMARK    9  A    between atoms: O_8  and  C_28
REMARK   10  A    between atoms: O_8  and  C_29
REMARK   11  A    between atoms: O_10  and  C_30
REMARK   12  A    between atoms: O_10  and  C_31
REMARK   13  A    between atoms: O_12  and  C_32
REMARK   14  A    between atoms: O_12  and  C_33
REMARK   15  A    between atoms: O_14  and  C_34
REMARK   16  A    between atoms: O_14  and  C_35
REMARK   17  A    between atoms: O_16  and  C_36
REMARK   18  A    between atoms: O_16  and  C_37
REMARK   19  A    between atoms: O_18  and  C_38
REMARK   20  A    between atoms: O_18  and  C_39
REMARK   21  A    between atoms: O_20  and  C_40
REMARK   22  A    between atoms: O_20  and  C_41
REMARK   23  A    between atoms: C_23  and  C_24
REMARK   24  A    between atoms: C_25  and  C_26
REMARK   25  A    between atoms: C_27  and  C_28
REMARK   26  A    between atoms: C_29  and  C_30
REMARK   27  A    between atoms: C_31  and  C_32
REMARK   28  A    between atoms: C_33  and  C_34
REMARK   29  A    between atoms: C_35  and  C_36
REMARK   30  A    between atoms: C_37  and  C_38
REMARK   31  A    between atoms: C_39  and  C_40
REMARK   32  A    between atoms: C_41  and  C_42
REMARK                            x       y       z     vdW  Elec       q    Type
REMARK                         _______ _______ _______ _____ _____    ______ ____
ROOT
ATOM      1  O   UNL     1     -10.931   2.062  12.592  0.00  0.00    +0.000 OA
ENDROOT
BRANCH   1   2
ATOM      2  C   UNL     1     -12.341   1.964  12.829  0.00  0.00    +0.000 C 
BRANCH   2   3
ATOM      3  C   UNL     1     -12.585   1.368  14.209  0.00  0.00    +0.000 C 
BRANCH   3   4
ATOM      4  O   UNL     1     -12.628   2.350  15.222  0.00  0.00    +0.000 OA
BRANCH   4   5
ATOM      5  C   UNL     1     -12.782   3.701  14.823  0.00  0.00    +0.000 C 
BRANCH   5   6
ATOM      6  C   UNL     1     -11.594   4.558  15.249  0.00  0.00    +0.000 C 
BRANCH   6   7
ATOM      7  O   UNL     1     -11.177   5.379  14.164  0.00  0.00    +0.000 OA
BRANCH   7   8
ATOM      8  C   UNL     1     -11.125   6.791  14.444  0.00  0.00    +0.000 C 
BRANCH   8   9
ATOM      9  C   UNL     1      -9.676   7.276  14.392  0.00  0.00    +0.000 C 
BRANCH   9  10
ATOM     10  O   UNL     1      -9.209   7.662  15.693  0.00  0.00    +0.000 OA
BRANCH  10  14
ATOM     11  C   UNL     1      -9.242   5.035  18.870  0.00  0.00    +0.000 A 
ATOM     12  C   UNL     1     -10.132   6.123  18.780  0.00  0.00    +0.000 A 
ATOM     13  C   UNL     1     -10.111   6.991  17.731  0.00  0.00    +0.000 A 
ATOM     14  C   UNL     1      -9.222   6.750  16.715  0.00  0.00    +0.000 A 
ATOM     15  C   UNL     1      -8.349   5.705  16.748  0.00  0.00    +0.000 A 
ATOM     16  C   UNL     1      -8.347   4.839  17.793  0.00  0.00    +0.000 A 
BRANCH  11  18
ATOM     17  C   UNL     1      -8.032   3.153  19.869  0.00  0.00    +0.000 C 
ATOM     18  C   UNL     1      -9.223   4.072  20.031  0.00  0.00    +0.000 C 
ATOM     19  C   UNL     1      -9.036   4.904  21.264  0.00  0.00    +0.000 C 
BRANCH  18  20
ATOM     20  C   UNL     1     -10.523   3.252  20.191  0.00  0.00    +0.000 C 
ATOM     21  C   UNL     1     -11.345   3.318  18.915  0.00  0.00    +0.000 C 
ATOM     22  C   UNL     1     -11.376   3.788  21.284  0.00  0.00    +0.000 C 
ATOM     23  C   UNL     1     -10.213   1.798  20.443  0.00  0.00    +0.000 C 
ENDBRANCH  18  20
ENDBRANCH  11  18
ENDBRANCH  10  14
ENDBRANCH   9  10
ENDBRANCH   8   9
ENDBRANCH   7   8
ENDBRANCH   6   7
ENDBRANCH   5   6
ENDBRANCH   4   5
ENDBRANCH   3   4
ENDBRANCH   2   3
ENDBRANCH   1   2
BRANCH   1  24
ATOM     24  C   UNL     1     -10.569   3.285  11.911  0.00  0.00    +0.000 C 
BRANCH  24  25
ATOM     25  C   UNL     1      -9.068   3.460  11.858  0.00  0.00    +0.000 C 
BRANCH  25  26
ATOM     26  O   UNL     1      -8.682   4.130  10.650  0.00  0.00    +0.000 OA
BRANCH  26  27
ATOM     27  C   UNL     1      -9.785   4.690   9.952  0.00  0.00    +0.000 C 
BRANCH  27  28
ATOM     28  C   UNL     1      -9.347   5.391   8.676  0.00  0.00    +0.000 C 
BRANCH  28  29
ATOM     29  O   UNL     1      -9.716   4.642   7.520  0.00  0.00    +0.000 OA
BRANCH  29  30
ATOM     30  C   UNL     1     -10.530   5.311   6.609  0.00  0.00    +0.000 C 
BRANCH  30  31
ATOM     31  C   UNL     1     -11.981   5.241   7.018  0.00  0.00    +0.000 C 
BRANCH  31  32
ATOM     32  O   UNL     1     -12.661   4.168   6.398  0.00  0.00    +0.000 OA
BRANCH  32  33
ATOM     33  C   UNL     1     -14.086   4.249   6.424  0.00  0.00    +0.000 C 
BRANCH  33  34
ATOM     34  C   UNL     1     -14.682   2.915   6.795  0.00  0.00    +0.000 C 
BRANCH  34  35
ATOM     35  O   UNL     1     -15.959   3.054   7.370  0.00  0.00    +0.000 OA
BRANCH  35  36
ATOM     36  C   UNL     1     -16.193   2.281   8.500  0.00  0.00    +0.000 C 
BRANCH  36  37
ATOM     37  C   UNL     1     -17.559   1.636   8.422  0.00  0.00    +0.000 C 
BRANCH  37  38
ATOM     38  O   UNL     1     -17.813   0.796   9.569  0.00  0.00    +0.000 OA
BRANCH  38  39
ATOM     39  C   UNL     1     -16.786   0.863  10.561  0.00  0.00    +0.000 C 
BRANCH  39  40
ATOM     40  C   UNL     1     -16.615  -0.451  11.288  0.00  0.00    +0.000 C 
BRANCH  40  41
ATOM     41  O   UNL     1     -15.255  -0.847  11.393  0.00  0.00    +0.000 OA
BRANCH  41  42
ATOM     42  C   UNL     1     -14.842  -1.172  12.722  0.00  0.00    +0.000 C 
BRANCH  42  44
ATOM     43  O   UNL     1     -12.576  -1.471  12.037  0.00  0.00    +0.000 OA
ATOM     44  C   UNL     1     -13.640  -2.097  12.710  0.00  0.00    +0.000 C 
ENDBRANCH  42  44
ENDBRANCH  41  42
ENDBRANCH  40  41
ENDBRANCH  39  40
ENDBRANCH  38  39
ENDBRANCH  37  38
ENDBRANCH  36  37
ENDBRANCH  35  36
ENDBRANCH  34  35
ENDBRANCH  33  34
ENDBRANCH  32  33
ENDBRANCH  31  32
ENDBRANCH  30  31
ENDBRANCH  29  30
ENDBRANCH  28  29
ENDBRANCH  27  28
ENDBRANCH  26  27
ENDBRANCH  25  26
ENDBRANCH  24  25
ENDBRANCH   1  24
TORSDOF 32
BEGIN_RES LEU A  10
REMARK  2 active torsions:
REMARK  status: ('A' for Active; 'I' for Inactive)
REMARK    1  A    between atoms: CA   and  CB  
REMARK    2  A    between atoms: CB   and  CG  
ROOT
ATOM      1  CA  LEU A  10     -10.775  -4.871   5.898  1.00 25.14     0.177 C 
ENDROOT
BRANCH   1   2
ATOM      2  CB  LEU A  10     -12.191  -4.387   6.226  1.00 17.87     0.038 C 
BRANCH   2   3
ATOM      3  CG  LEU A  10     -12.667  -3.204   5.381  1.00 24.95    -0.020 C 
ATOM      4  CD2 LEU A  10     -13.497  -2.302   6.230  1.00 26.38     0.009 C 
ATOM      5  CD1 LEU A  10     -13.458  -3.681   4.175  1.00 28.12     0.009 C 
ENDBRANCH   2   3
ENDBRANCH   1   2
END_RES LEU A  10
BEGIN_RES CYS A  12
REMARK  2 active torsions:
REMARK  status: ('A' for Active; 'I' for Inactive)
REMARK    3  A    between atoms: CA   and  CB  
REMARK    4  A    between atoms: CB   and  SG  
ROOT
ATOM      6  CA  CYS A  12      -8.555   0.470   8.750  1.00 23.16     0.185 C 
ENDROOT
BRANCH   6   7
ATOM      7  CB  CYS A  12      -9.828   0.763   9.555  1.00 20.43     0.105 C 
BRANCH   7   8
ATOM      8  SG  CYS A  12     -11.226   1.452   8.618  1.00 24.64    -0.180 SA
ATOM      9  H04 CYS A  12     -12.375   1.128   9.225  1.00 24.64     0.101 HD
ENDBRANCH   7   8
ENDBRANCH   6   7
END_RES CYS A  12
BEGIN_RES GLN A  14
REMARK  3 active torsions:
REMARK  status: ('A' for Active; 'I' for Inactive)
REMARK    5  A    between atoms: CA   and  CB  
REMARK    6  A    between atoms: CB   and  CG  
REMARK    7  A    between atoms: CG   and  CD  
REMARK       I    between atoms: CD   and  NE2 
ROOT
ATOM     10  CA  GLN A  14      -4.645   5.402  11.377  1.00 10.43     0.177 C 
ENDROOT
BRANCH  10  11
ATOM     11  CB  GLN A  14      -5.541   5.549  12.608  1.00 14.45     0.044 C 
BRANCH  11  12
ATOM     12  CG  GLN A  14      -6.700   6.500  12.418  1.00 13.74     0.105 C 
BRANCH  12  13
ATOM     13  CD  GLN A  14      -6.259   7.944  12.364  1.00 16.29     0.215 C 
ATOM     14  NE2 GLN A  14      -5.394   8.326  13.278  1.00  8.57    -0.370 N 
ATOM     15  H06 GLN A  14      -5.062   9.280  13.291  1.00  8.57     0.159 HD
ATOM     16  H07 GLN A  14      -5.061   7.666  13.966  1.00  8.57     0.159 HD
ATOM     17  OE1 GLN A  14      -6.690   8.703  11.510  1.00 23.55    -0.274 OA
ENDBRANCH  12  13
ENDBRANCH  11  12
ENDBRANCH  10  11
END_RES GLN A  14
BEGIN_RES SER A  16
REMARK  2 active torsions:
REMARK  status: ('A' for Active; 'I' for Inactive)
REMARK    8  A    between atoms: CA   and  CB  
REMARK    9  A    between atoms: CB   and  OG  
ROOT
ATOM     18  CA  SER A  16      -1.305  10.019  14.282  1.00  2.34     0.200 C 
ENDROOT
BRANCH  18  19
ATOM     19  CB  SER A  16      -2.242   9.935  15.479  1.00  3.12     0.199 C 
BRANCH  19  20
ATOM     20  OG  SER A  16      -3.454   9.299  15.112  1.00  1.00    -0.398 OA
ATOM     21  H04 SER A  16      -4.111   9.963  14.895  1.00  1.00     0.209 HD
ENDBRANCH  19  20
ENDBRANCH  18  19
END_RES SER A  16
BEGIN_RES LEU A  32
REMARK  2 active torsions:
REMARK  status: ('A' for Active; 'I' for Inactive)
REMARK   10  A    between atoms: CA   and  CB  
REMARK   11  A    between atoms: CB   and  CG  
ROOT
ATOM     22  CA  LEU A  32     -10.272  -4.106   1.587  1.00 16.16     0.177 C 
ENDROOT
BRANCH  22  23
ATOM     23  CB  LEU A  32     -11.613  -3.858   0.880  1.00 12.35     0.038 C 
BRANCH  23  24
ATOM     24  CG  LEU A  32     -12.577  -5.051   1.043  1.00  9.77    -0.020 C 
ATOM     25  CD1 LEU A  32     -14.005  -4.603   0.842  1.00  4.35     0.009 C 
ATOM     26  CD2 LEU A  32     -12.246  -6.146   0.063  1.00 10.60     0.009 C 
ENDBRANCH  23  24
ENDBRANCH  22  23
END_RES LEU A  32
BEGIN_RES HIS A  38
REMARK  2 active torsions:
REMARK  status: ('A' for Active; 'I' for Inactive)
REMARK   12  A    between atoms: CA   and  CB  
REMARK   13  A    between atoms: CB   and  CG  
ROOT
ATOM     27  CA  HIS A  38     -10.959   4.941   1.621  1.00 16.94     0.182 C 
ENDROOT
BRANCH  27  28
ATOM     28  CB  HIS A  38     -11.810   4.840   2.881  1.00 15.47     0.095 C 
BRANCH  28  29
ATOM     29  CG  HIS A  38     -12.981   3.921   2.747  1.00 18.62     0.053 A 
ATOM     30  CD2 HIS A  38     -14.156   4.070   2.090  1.00 15.06     0.116 A 
ATOM     31  NE2 HIS A  38     -14.864   2.908   2.265  1.00 18.12    -0.359 N 
ATOM     32  CE1 HIS A  38     -14.153   2.077   3.002  1.00 14.78     0.207 A 
ATOM     33  H06 HIS A  38     -15.783   2.720   1.891  1.00 18.12     0.166 HD
ATOM     34  ND1 HIS A  38     -13.012   2.663   3.307  1.00 16.58    -0.247 NA
ENDBRANCH  28  29
ENDBRANCH  27  28
END_RES HIS A  38
BEGIN_RES TRP A  63
REMARK  2 active torsions:
REMARK  status: ('A' for Active; 'I' for Inactive)
REMARK   14  A    between atoms: CA   and  CB  
REMARK   15  A    between atoms: CB   and  CG  
ROOT
ATOM     35  CA  TRP A  63     -22.437   6.257   6.543  1.00 27.04     0.181 C 
ENDROOT
BRANCH  35  36
ATOM     36  CB  TRP A  63     -22.360   6.642   5.068  1.00 31.37     0.075 C 
BRANCH  36  37
ATOM     37  CG  TRP A  63     -20.953   6.774   4.525  1.00 34.37    -0.028 A 
ATOM     38  CD2 TRP A  63     -19.891   5.815   4.625  1.00 33.79    -0.002 A 
ATOM     39  CE3 TRP A  63     -19.760   4.569   5.243  1.00 32.99     0.014 A 
ATOM     40  CE2 TRP A  63     -18.789   6.337   3.913  1.00 35.84     0.042 A 
ATOM     41  CZ3 TRP A  63     -18.554   3.893   5.134  1.00 32.93     0.001 A 
ATOM     42  CH2 TRP A  63     -17.476   4.439   4.419  1.00 39.24     0.002 A 
ATOM     43  CZ2 TRP A  63     -17.575   5.657   3.802  1.00 37.99     0.030 A 
ATOM     44  NE1 TRP A  63     -19.167   7.551   3.409  1.00 37.98    -0.365 N 
ATOM     45  H06 TRP A  63     -18.587   8.163   2.853  1.00 37.98     0.165 HD
ATOM     46  CD1 TRP A  63     -20.465   7.804   3.783  1.00 38.16     0.096 A 
ENDBRANCH  36  37
ENDBRANCH  35  36
END_RES TRP A  63
BEGIN_RES LEU A  66
REMARK  2 active torsions:
REMARK  status: ('A' for Active; 'I' for Inactive)
REMARK   16  A    between atoms: CA   and  CB  
REMARK   17  A    between atoms: CB   and  CG  
ROOT
ATOM     47  CA  LEU A  66     -20.004   6.489  11.120  1.00 10.90     0.177 C 
ENDROOT
BRANCH  47  48
ATOM     48  CB  LEU A  66     -19.626   5.453  10.069  1.00 13.57     0.038 C 
BRANCH  48  49
ATOM     49  CG  LEU A  66     -19.253   4.057  10.566  1.00  8.73    -0.020 C 
ATOM     50  CD1 LEU A  66     -18.882   4.093  12.025  1.00 14.23     0.009 C 
ATOM     51  CD2 LEU A  66     -20.434   3.144  10.355  1.00  1.92     0.009 C 
ENDBRANCH  48  49
ENDBRANCH  47  48
END_RES LEU A  66
BEGIN_RES PHE A  70
REMARK  2 active torsions:
REMARK  status: ('A' for Active; 'I' for Inactive)
REMARK   18  A    between atoms: CA   and  CB  
REMARK   19  A    between atoms: CB   and  CG  
ROOT
ATOM     52  CA  PHE A  70     -14.974   9.434  13.165  1.00  8.78     0.180 C 
ENDROOT
BRANCH  52  53
ATOM     53  CB  PHE A  70     -14.707   9.132  11.681  1.00  6.33     0.073 C 
BRANCH  53  54
ATOM     54  CG  PHE A  70     -14.671   7.661  11.367  1.00  3.42    -0.056 A 
ATOM     55  CD1 PHE A  70     -13.822   6.804  12.050  1.00 13.88     0.007 A 
ATOM     56  CE1 PHE A  70     -13.759   5.439  11.719  1.00 12.71     0.001 A 
ATOM     57  CZ  PHE A  70     -14.556   4.928  10.695  1.00  4.21     0.000 A 
ATOM     58  CE2 PHE A  70     -15.409   5.772  10.008  1.00  2.83     0.001 A 
ATOM     59  CD2 PHE A  70     -15.464   7.135  10.346  1.00  1.00     0.007 A 
ENDBRANCH  53  54
ENDBRANCH  52  53
END_RES PHE A  70
BEGIN_RES TYR A  73
REMARK  3 active torsions:
REMARK  status: ('A' for Active; 'I' for Inactive)
REMARK   20  A    between atoms: CA   and  CB  
REMARK   21  A    between atoms: CB   and  CG  
REMARK   22  A    between atoms: CZ   and  OH  
ROOT
ATOM     60  CA  TYR A  73     -13.212  10.166  17.260  1.00 12.17     0.180 C 
ENDROOT
BRANCH  60  61
ATOM     61  CB  TYR A  73     -13.301   8.846  16.517  1.00 12.84     0.073 C 
BRANCH  61  62
ATOM     62  CG  TYR A  73     -13.643   7.700  17.403  1.00 15.89    -0.056 A 
ATOM     63  CD1 TYR A  73     -13.533   7.802  18.772  1.00 16.00     0.010 A 
ATOM     64  CE1 TYR A  73     -13.823   6.719  19.602  1.00 13.55     0.037 A 
ATOM     65  CZ  TYR A  73     -14.227   5.524  19.041  1.00 18.13     0.065 A 
ATOM     66  CE2 TYR A  73     -14.345   5.397  17.676  1.00 15.89     0.037 A 
ATOM     67  CD2 TYR A  73     -14.053   6.485  16.864  1.00 21.86     0.010 A 
BRANCH  65  68
ATOM     68  OH  TYR A  73     -14.523   4.448  19.839  1.00 12.12    -0.361 OA
ATOM     69  H08 TYR A  73     -15.324   4.628  20.337  1.00 12.12     0.217 HD
ENDBRANCH  65  68
ENDBRANCH  61  62
ENDBRANCH  60  61
END_RES TYR A  73
BEGIN_RES PHE A  77
REMARK  2 active torsions:
REMARK  status: ('A' for Active; 'I' for Inactive)
REMARK   23  A    between atoms: CA   and  CB  
REMARK   24  A    between atoms: CB   and  CG  
ROOT
ATOM     70  CA  PHE A  77      -8.400  10.581  20.110  1.00 17.17     0.180 C 
ENDROOT
BRANCH  70  71
ATOM     71  CB  PHE A  77      -8.228   9.750  18.851  1.00 10.44     0.073 C 
BRANCH  71  72
ATOM     72  CG  PHE A  77      -7.176   8.692  18.966  1.00  6.07    -0.056 A 
ATOM     73  CD2 PHE A  77      -7.140   7.857  20.060  1.00  9.61     0.007 A 
ATOM     74  CE2 PHE A  77      -6.168   6.870  20.175  1.00  1.00     0.001 A 
ATOM     75  CZ  PHE A  77      -5.220   6.715  19.178  1.00  1.92     0.000 A 
ATOM     76  CE1 PHE A  77      -5.243   7.540  18.076  1.00  9.25     0.001 A 
ATOM     77  CD1 PHE A  77      -6.223   8.528  17.975  1.00  9.63     0.007 A 
ENDBRANCH  71  72
ENDBRANCH  70  71
END_RES PHE A  77
BEGIN_RES LEU A  96
REMARK  2 active torsions:
REMARK  status: ('A' for Active; 'I' for Inactive)
REMARK   25  A    between atoms: CA   and  CB  
REMARK   26  A    between atoms: CB   and  CG  
ROOT
ATOM     78  CA  LEU A  96       0.717   6.481  17.359  1.00 16.08     0.177 C 
ENDROOT
BRANCH  78  79
ATOM     79  CB  LEU A  96      -0.370   7.101  18.230  1.00 18.83     0.038 C 
BRANCH  79  80
ATOM     80  CG  LEU A  96      -0.201   6.853  19.729  1.00 19.03    -0.020 C 
ATOM     81  CD1 LEU A  96       0.494   8.044  20.345  1.00 28.17     0.009 C 
ATOM     82  CD2 LEU A  96      -1.549   6.690  20.391  1.00 22.01     0.009 C 
ENDBRANCH  79  80
ENDBRANCH  78  79
END_RES LEU A  96
BEGIN_RES VAL A  98
REMARK  1 active torsions:
REMARK  status: ('A' for Active; 'I' for Inactive)
REMARK   27  A    between atoms: CA   and  CB  
ROOT
ATOM     83  CA  VAL A  98      -3.928   2.082  14.897  1.00 19.83     0.180 C 
ENDROOT
BRANCH  83  84
ATOM     84  CB  VAL A  98      -5.203   2.807  15.281  1.00 17.87     0.009 C 
ATOM     85  CG2 VAL A  98      -5.302   2.919  16.780  1.00 29.90     0.012 C 
ATOM     86  CG1 VAL A  98      -6.397   2.066  14.717  1.00 14.79     0.012 C 
ENDBRANCH  83  84
END_RES VAL A  98
BEGIN_RES ASN A 112
REMARK  2 active torsions:
REMARK  status: ('A' for Active; 'I' for Inactive)
REMARK   28  A    between atoms: CA   and  CB  
REMARK   29  A    between atoms: CB   and  CG  
REMARK       I    between atoms: CG   and  ND2 
ROOT
ATOM     87  CA  ASN A 112     -11.790  -8.793  14.069  1.00 37.70     0.185 C 
ENDROOT
BRANCH  87  88
ATOM     88  CB  ASN A 112     -12.992  -7.945  14.465  1.00 26.24     0.137 C 
BRANCH  88  89
ATOM     89  CG  ASN A 112     -13.828  -8.575  15.556  1.00 21.77     0.217 C 
ATOM     90  ND2 ASN A 112     -14.984  -9.116  15.174  1.00  9.31    -0.370 N 
ATOM     91  H04 ASN A 112     -15.589  -9.550  15.856  1.00  9.31     0.159 HD
ATOM     92  H05 ASN A 112     -15.256  -9.091  14.201  1.00  9.31     0.159 HD
ATOM     93  OD1 ASN A 112     -13.445  -8.573  16.732  1.00 21.61    -0.274 OA
ENDBRANCH  88  89
ENDBRANCH  87  88
END_RES ASN A 112
BEGIN_RES PHE A 114
REMARK  2 active torsions:
REMARK  status: ('A' for Active; 'I' for Inactive)
REMARK   30  A    between atoms: CA   and  CB  
REMARK   31  A    between atoms: CB   and  CG  
ROOT
ATOM     94  CA  PHE A 114      -7.754  -3.619  17.012  1.00 26.06     0.180 C 
ENDROOT
BRANCH  94  95
ATOM     95  CB  PHE A 114      -8.890  -3.080  17.867  1.00 19.95     0.073 C 
BRANCH  95  96
ATOM     96  CG  PHE A 114      -9.228  -1.654  17.573  1.00 17.65    -0.056 A 
ATOM     97  CD1 PHE A 114      -8.226  -0.695  17.450  1.00 13.01     0.007 A 
ATOM     98  CE1 PHE A 114      -8.541   0.635  17.205  1.00  6.74     0.001 A 
ATOM     99  CZ  PHE A 114      -9.871   1.025  17.077  1.00  6.27     0.000 A 
ATOM    100  CE2 PHE A 114     -10.876   0.079  17.196  1.00 17.36     0.001 A 
ATOM    101  CD2 PHE A 114     -10.552  -1.259  17.444  1.00 18.39     0.007 A 
ENDBRANCH  95  96
ENDBRANCH  94  95
END_RES PHE A 114
BEGIN_RES VAL A 116
REMARK  1 active torsions:
REMARK  status: ('A' for Active; 'I' for Inactive)
REMARK   32  A    between atoms: CA   and  CB  
ROOT
ATOM    102  CA  VAL A 116      -2.467   0.283  18.565  1.00 13.48     0.180 C 
ENDROOT
BRANCH 102 103
ATOM    103  CB  VAL A 116      -3.101   1.238  19.599  1.00 20.86     0.009 C 
ATOM    104  CG1 VAL A 116      -2.790   2.687  19.215  1.00 25.01     0.012 C 
ATOM    105  CG2 VAL A 116      -4.589   0.999  19.712  1.00 25.34     0.012 C 
ENDBRANCH 102 103
END_RES VAL A 116
BEGIN_RES ILE A 123
REMARK  2 active torsions:
REMARK  status: ('A' for Active; 'I' for Inactive)
REMARK   33  A    between atoms: CA   and  CB  
REMARK   34  A    between atoms: CB   and  CG1 
ROOT
ATOM    106  CA  ILE A 123       1.557  -1.626  23.222  1.00 15.07     0.180 C 
ENDROOT
BRANCH 106 107
ATOM    107  CB  ILE A 123       1.697  -0.112  23.461  1.00 14.41     0.013 C 
ATOM    108  CG2 ILE A 123       3.106   0.210  23.926  1.00 18.35     0.012 C 
BRANCH 107 109
ATOM    109  CG1 ILE A 123       1.374   0.659  22.183  1.00 15.23     0.002 C 
ATOM    110  CD1 ILE A 123       0.231   1.633  22.336  1.00 14.67     0.005 C 
ENDBRANCH 107 109
ENDBRANCH 106 107
END_RES ILE A 123
BEGIN_RES LEU A 124
REMARK  2 active torsions:
REMARK  status: ('A' for Active; 'I' for Inactive)
REMARK   35  A    between atoms: CA   and  CB  
REMARK   36  A    between atoms: CB   and  CG  
ROOT
ATOM    111  CA  LEU A 124      -2.057  -2.686  23.524  1.00 11.86     0.177 C 
ENDROOT
BRANCH 111 112
ATOM    112  CB  LEU A 124      -2.698  -1.652  24.429  1.00 14.60     0.038 C 
BRANCH 112 113
ATOM    113  CG  LEU A 124      -2.644  -0.255  23.829  1.00 16.19    -0.020 C 
ATOM    114  CD1 LEU A 124      -4.063   0.161  23.398  1.00 22.07     0.009 C 
ATOM    115  CD2 LEU A 124      -2.058   0.702  24.837  1.00  9.12     0.009 C 
ENDBRANCH 112 113
ENDBRANCH 111 112
END_RES LEU A 124
BEGIN_RES PHE A 126
REMARK  2 active torsions:
REMARK  status: ('A' for Active; 'I' for Inactive)
REMARK   37  A    between atoms: CA   and  CB  
REMARK   38  A    between atoms: CB   and  CG  
ROOT
ATOM    116  CA  PHE A 126      -8.784  -4.792  22.233  1.00 23.15     0.180 C 
ENDROOT
BRANCH 116 117
ATOM    117  CB  PHE A 126      -9.823  -4.011  21.461  1.00 20.65     0.073 C 
BRANCH 117 118
ATOM    118  CG  PHE A 126     -10.951  -3.546  22.296  1.00 23.65    -0.056 A 
ATOM    119  CD2 PHE A 126     -12.218  -4.078  22.129  1.00 36.63     0.007 A 
ATOM    120  CE2 PHE A 126     -13.287  -3.637  22.922  1.00 36.27     0.001 A 
ATOM    121  CZ  PHE A 126     -13.078  -2.659  23.883  1.00 18.06     0.000 A 
ATOM    122  CE1 PHE A 126     -11.815  -2.129  24.054  1.00  5.50     0.001 A 
ATOM    123  CD1 PHE A 126     -10.757  -2.575  23.262  1.00 15.29     0.007 A 
ENDBRANCH 117 118
ENDBRANCH 116 117
END_RES PHE A 126
BEGIN_RES TRP A 131
REMARK  2 active torsions:
REMARK  status: ('A' for Active; 'I' for Inactive)
REMARK   39  A    between atoms: CA   and  CB  
REMARK   40  A    between atoms: CB   and  CG  
ROOT
ATOM    124  CA  TRP A 131      -8.096  -3.335  26.542  1.00 14.52     0.181 C 
ENDROOT
BRANCH 124 125
ATOM    125  CB  TRP A 131      -7.651  -1.877  26.607  1.00 13.06     0.075 C 
BRANCH 125 126
ATOM    126  CG  TRP A 131      -8.084  -1.042  25.423  1.00 16.97    -0.028 A 
ATOM    127  CD2 TRP A 131      -9.157  -0.096  25.394  1.00 11.34    -0.002 A 
ATOM    128  CE2 TRP A 131      -9.202   0.453  24.097  1.00  5.87     0.042 A 
ATOM    129  CE3 TRP A 131     -10.087   0.338  26.345  1.00  3.80     0.014 A 
ATOM    130  CZ2 TRP A 131     -10.140   1.418  23.727  1.00  1.35     0.030 A 
ATOM    131  NE1 TRP A 131      -8.204  -0.132  23.368  1.00 13.90    -0.365 N 
ATOM    132  CH2 TRP A 131     -11.040   1.827  24.680  1.00  1.00     0.002 A 
ATOM    133  CZ3 TRP A 131     -11.020   1.293  25.983  1.00  1.00     0.001 A 
ATOM    134  CD1 TRP A 131      -7.536  -1.029  24.169  1.00 17.22     0.096 A 
ATOM    135  H07 TRP A 131      -7.992   0.062  22.400  1.00 13.90     0.165 HD
ENDBRANCH 125 126
ENDBRANCH 124 125
END_RES TRP A 131
BEGIN_RES LEU A 148
REMARK  2 active torsions:
REMARK  status: ('A' for Active; 'I' for Inactive)
REMARK   41  A    between atoms: CA   and  CB  
REMARK   42  A    between atoms: CB   and  CG  
ROOT
ATOM    136  CA  LEU A 148      -9.018   3.259  29.295  1.00 16.99     0.177 C 
ENDROOT
BRANCH 136 137
ATOM    137  CB  LEU A 148      -8.166   2.574  28.236  1.00  6.39     0.038 C 
BRANCH 137 138
ATOM    138  CG  LEU A 148      -7.532   3.365  27.110  1.00  1.00    -0.020 C 
ATOM    139  CD2 LEU A 148      -8.590   4.040  26.287  1.00  1.00     0.009 C 
ATOM    140  CD1 LEU A 148      -6.720   2.409  26.256  1.00  2.71     0.009 C 
ENDBRANCH 137 138
ENDBRANCH 136 137
END_RES LEU A 148
BEGIN_RES THR A 154
REMARK  2 active torsions:
REMARK  status: ('A' for Active; 'I' for Inactive)
REMARK   43  A    between atoms: CA   and  CB  
REMARK   44  A    between atoms: CB   and  OG1 
ROOT
ATOM    141  CA  THR A 154     -15.990   3.959  24.426  1.00 20.45     0.205 C 
ENDROOT
BRANCH 141 142
ATOM    142  CB  THR A 154     -14.777   4.829  24.694  1.00 16.79     0.146 C 
ATOM    143  CG2 THR A 154     -13.635   4.431  23.779  1.00 20.24     0.042 C 
BRANCH 142 144
ATOM    144  OG1 THR A 154     -15.120   6.197  24.437  1.00 18.84    -0.393 OA
ATOM    145  H06 THR A 154     -14.965   6.720  25.227  1.00 18.84     0.210 HD
ENDBRANCH 142 144
ENDBRANCH 141 142
END_RES THR A 154
BEGIN_RES VAL A 158
REMARK  1 active torsions:
REMARK  status: ('A' for Active; 'I' for Inactive)
REMARK   45  A    between atoms: CA   and  CB  
ROOT
ATOM    146  CA  VAL A 158     -15.487  -0.189  19.892  1.00 15.49     0.180 C 
ENDROOT
BRANCH 146 147
ATOM    147  CB  VAL A 158     -14.291  -0.273  20.822  1.00  6.52     0.009 C 
ATOM    148  CG1 VAL A 158     -13.217  -1.163  20.240  1.00  1.00     0.012 C 
ATOM    149  CG2 VAL A 158     -13.764   1.110  21.053  1.00  5.99     0.012 C 
ENDBRANCH 146 147
END_RES VAL A 158
BEGIN_RES LEU A 161
REMARK  2 active torsions:
REMARK  status: ('A' for Active; 'I' for Inactive)
REMARK   46  A    between atoms: CA   and  CB  
REMARK   47  A    between atoms: CB   and  CG  
ROOT
ATOM    150  CA  LEU A 161     -18.031  -1.858  15.935  1.00 13.31     0.177 C 
ENDROOT
BRANCH 150 151
ATOM    151  CB  LEU A 161     -17.046  -0.706  16.001  1.00 14.13     0.038 C 
BRANCH 151 152
ATOM    152  CG  LEU A 161     -17.307   0.460  15.056  1.00 19.39    -0.020 C 
ATOM    153  CD2 LEU A 161     -16.338   1.584  15.332  1.00 27.75     0.009 C 
ATOM    154  CD1 LEU A 161     -18.720   0.938  15.252  1.00 18.59     0.009 C 
ENDBRANCH 151 152
ENDBRANCH 150 151
END_RES LEU A 161
BEGIN_RES GLN A 168
REMARK  3 active torsions:
REMARK  status: ('A' for Active; 'I' for Inactive)
REMARK   48  A    between atoms: CA   and  CB  
REMARK   49  A    between atoms: CB   and  CG  
REMARK   50  A    between atoms: CG   and  CD  
REMARK       I    between atoms: CD   and  NE2 
ROOT
ATOM    155  CA  GLN A 168     -22.035  -6.020   8.155  1.00 30.94     0.177 C 
ENDROOT
BRANCH 155 156
ATOM    156  CB  GLN A 168     -23.054  -5.218   8.946  1.00 41.76     0.044 C 
BRANCH 156 157
ATOM    157  CG  GLN A 168     -24.466  -5.726   8.840  1.00 61.20     0.105 C 
BRANCH 157 158
ATOM    158  CD  GLN A 168     -25.099  -5.366   7.510  1.00 75.49     0.215 C 
ATOM    159  NE2 GLN A 168     -25.692  -6.362   6.850  1.00 85.00    -0.370 N 
ATOM    160  H06 GLN A 168     -26.129  -6.185   5.956  1.00 85.00     0.159 HD
ATOM    161  H07 GLN A 168     -25.702  -7.293   7.243  1.00 85.00     0.159 HD
ATOM    162  OE1 GLN A 168     -25.053  -4.207   7.074  1.00 73.64    -0.274 OA
ENDBRANCH 157 158
ENDBRANCH 156 157
ENDBRANCH 155 156
END_RES GLN A 168
ENDMDL
MODEL 4
REMARK VINA RESULT:      -8.0      1.956      9.278
REMARK  Name = human_CD1d_tritonX_pred.rank_0
REMARK  32 active torsions:
REMARK  status: ('A' for Active; 'I' for Inactive)
REMARK    1  A    between atoms: O_2  and  C_21
REMARK    2  A    between atoms: O_2  and  C_23
REMARK    3  A    between atoms: C_3  and  C_5
REMARK    4  A    between atoms: C_3  and  C_15
REMARK    5  A    between atoms: O_4  and  C_24
REMARK    6  A    between atoms: O_4  and  C_25
REMARK    7  A    between atoms: O_6  and  C_26
REMARK    8  A    between atoms: O_6  and  C_27
REMARK    9  A    between atoms: O_8  and  C_28
REMARK   10  A    between atoms: O_8  and  C_29
REMARK   11  A    between atoms: O_10  and  C_30
REMARK   12  A    between atoms: O_10  and  C_31
REMARK   13  A    between atoms: O_12  and  C_32
REMARK   14  A    between atoms: O_12  and  C_33
REMARK   15  A    between atoms: O_14  and  C_34
REMARK   16  A    between atoms: O_14  and  C_35
REMARK   17  A    between atoms: O_16  and  C_36
REMARK   18  A    between atoms: O_16  and  C_37
REMARK   19  A    between atoms: O_18  and  C_38
REMARK   20  A    between atoms: O_18  and  C_39
REMARK   21  A    between atoms: O_20  and  C_40
REMARK   22  A    between atoms: O_20  and  C_41
REMARK   23  A    between atoms: C_23  and  C_24
REMARK   24  A    between atoms: C_25  and  C_26
REMARK   25  A    between atoms: C_27  and  C_28
REMARK   26  A    between atoms: C_29  and  C_30
REMARK   27  A    between atoms: C_31  and  C_32
REMARK   28  A    between atoms: C_33  and  C_34
REMARK   29  A    between atoms: C_35  and  C_36
REMARK   30  A    between atoms: C_37  and  C_38
REMARK   31  A    between atoms: C_39  and  C_40
REMARK   32  A    between atoms: C_41  and  C_42
REMARK                            x       y       z     vdW  Elec       q    Type
REMARK                         _______ _______ _______ _____ _____    ______ ____
ROOT
ATOM      1  O   UNL     1      -9.696   3.676  14.843  0.00  0.00    +0.000 OA
ENDROOT
BRANCH   1   2
ATOM      2  C   UNL     1     -11.120   3.562  14.718  0.00  0.00    +0.000 C 
BRANCH   2   3
ATOM      3  C   UNL     1     -11.463   2.295  13.945  0.00  0.00    +0.000 C 
BRANCH   3   4
ATOM      4  O   UNL     1     -12.689   1.727  14.354  0.00  0.00    +0.000 OA
BRANCH   4   5
ATOM      5  C   UNL     1     -13.519   1.161  13.354  0.00  0.00    +0.000 C 
BRANCH   5   6
ATOM      6  C   UNL     1     -13.828  -0.306  13.635  0.00  0.00    +0.000 C 
BRANCH   6   7
ATOM      7  O   UNL     1     -14.041  -0.998  12.410  0.00  0.00    +0.000 OA
BRANCH   7   8
ATOM      8  C   UNL     1     -12.949  -0.944  11.473  0.00  0.00    +0.000 C 
BRANCH   8   9
ATOM      9  C   UNL     1     -13.482  -1.087  10.047  0.00  0.00    +0.000 C 
BRANCH   9  10
ATOM     10  O   UNL     1     -14.881  -0.773   9.980  0.00  0.00    +0.000 OA
BRANCH  10  14
ATOM     11  C   UNL     1     -16.249   2.471   7.837  0.00  0.00    +0.000 A 
ATOM     12  C   UNL     1     -17.069   1.756   8.731  0.00  0.00    +0.000 A 
ATOM     13  C   UNL     1     -16.613   0.682   9.431  0.00  0.00    +0.000 A 
ATOM     14  C   UNL     1     -15.295   0.332   9.285  0.00  0.00    +0.000 A 
ATOM     15  C   UNL     1     -14.457   0.998   8.443  0.00  0.00    +0.000 A 
ATOM     16  C   UNL     1     -14.900   2.062   7.726  0.00  0.00    +0.000 A 
BRANCH  11  18
ATOM     17  C   UNL     1     -16.204   3.507   5.617  0.00  0.00    +0.000 C 
ATOM     18  C   UNL     1     -16.732   3.649   7.027  0.00  0.00    +0.000 C 
ATOM     19  C   UNL     1     -18.227   3.558   7.003  0.00  0.00    +0.000 C 
BRANCH  18  20
ATOM     20  C   UNL     1     -16.339   5.023   7.618  0.00  0.00    +0.000 C 
ATOM     21  C   UNL     1     -17.402   6.057   7.291  0.00  0.00    +0.000 C 
ATOM     22  C   UNL     1     -15.061   5.518   7.042  0.00  0.00    +0.000 C 
ATOM     23  C   UNL     1     -16.236   4.951   9.120  0.00  0.00    +0.000 C 
ENDBRANCH  18  20
ENDBRANCH  11  18
ENDBRANCH  10  14
ENDBRANCH   9  10
ENDBRANCH   8   9
ENDBRANCH   7   8
ENDBRANCH   6   7
ENDBRANCH   5   6
ENDBRANCH   4   5
ENDBRANCH   3   4
ENDBRANCH   2   3
ENDBRANCH   1   2
BRANCH   1  24
ATOM     24  C   UNL     1      -9.241   5.044  14.739  0.00  0.00    +0.000 C 
BRANCH  24  25
ATOM     25  C   UNL     1      -8.089   5.312  15.681  0.00  0.00    +0.000 C 
BRANCH  25  26
ATOM     26  O   UNL     1      -8.300   6.534  16.400  0.00  0.00    +0.000 OA
BRANCH  26  27
ATOM     27  C   UNL     1      -9.673   6.887  16.500  0.00  0.00    +0.000 C 
BRANCH  27  28
ATOM     28  C   UNL     1     -10.198   6.705  17.915  0.00  0.00    +0.000 C 
BRANCH  28  29
ATOM     29  O   UNL     1     -10.780   5.415  18.090  0.00  0.00    +0.000 OA
BRANCH  29  30
ATOM     30  C   UNL     1     -10.820   4.951  19.403  0.00  0.00    +0.000 C 
BRANCH  30  31
ATOM     31  C   UNL     1     -11.351   3.540  19.468  0.00  0.00    +0.000 C 
BRANCH  31  32
ATOM     32  O   UNL     1     -10.483   2.673  20.171  0.00  0.00    +0.000 OA
BRANCH  32  33
ATOM     33  C   UNL     1      -9.178   3.190  20.429  0.00  0.00    +0.000 C 
BRANCH  33  34
ATOM     34  C   UNL     1      -8.173   2.069  20.501  0.00  0.00    +0.000 C 
BRANCH  34  35
ATOM     35  O   UNL     1      -7.323   2.198  21.615  0.00  0.00    +0.000 OA
BRANCH  35  36
ATOM     36  C   UNL     1      -6.758   3.454  21.796  0.00  0.00    +0.000 C 
BRANCH  36  37
ATOM     37  C   UNL     1      -5.667   3.395  22.841  0.00  0.00    +0.000 C 
BRANCH  37  38
ATOM     38  O   UNL     1      -4.356   3.482  22.240  0.00  0.00    +0.000 OA
BRANCH  38  39
ATOM     39  C   UNL     1      -3.335   3.874  23.160  0.00  0.00    +0.000 C 
BRANCH  39  40
ATOM     40  C   UNL     1      -3.890   4.682  24.311  0.00  0.00    +0.000 C 
BRANCH  40  41
ATOM     41  O   UNL     1      -3.557   6.060  24.227  0.00  0.00    +0.000 OA
BRANCH  41  42
ATOM     42  C   UNL     1      -4.299   6.781  23.242  0.00  0.00    +0.000 C 
BRANCH  42  44
ATOM     43  O   UNL     1      -6.668   6.808  23.522  0.00  0.00    +0.000 OA
ATOM     44  C   UNL     1      -5.487   7.489  23.864  0.00  0.00    +0.000 C 
ENDBRANCH  42  44
ENDBRANCH  41  42
ENDBRANCH  40  41
ENDBRANCH  39  40
ENDBRANCH  38  39
ENDBRANCH  37  38
ENDBRANCH  36  37
ENDBRANCH  35  36
ENDBRANCH  34  35
ENDBRANCH  33  34
ENDBRANCH  32  33
ENDBRANCH  31  32
ENDBRANCH  30  31
ENDBRANCH  29  30
ENDBRANCH  28  29
ENDBRANCH  27  28
ENDBRANCH  26  27
ENDBRANCH  25  26
ENDBRANCH  24  25
ENDBRANCH   1  24
TORSDOF 32
BEGIN_RES LEU A  10
REMARK  2 active torsions:
REMARK  status: ('A' for Active; 'I' for Inactive)
REMARK    1  A    between atoms: CA   and  CB  
REMARK    2  A    between atoms: CB   and  CG  
ROOT
ATOM      1  CA  LEU A  10     -10.775  -4.871   5.898  1.00 25.14     0.177 C 
ENDROOT
BRANCH   1   2
ATOM      2  CB  LEU A  10     -12.191  -4.387   6.226  1.00 17.87     0.038 C 
BRANCH   2   3
ATOM      3  CG  LEU A  10     -12.420  -2.893   5.987  1.00 24.95    -0.020 C 
ATOM      4  CD2 LEU A  10     -13.706  -2.490   6.627  1.00 26.38     0.009 C 
ATOM      5  CD1 LEU A  10     -12.440  -2.577   4.502  1.00 28.12     0.009 C 
ENDBRANCH   2   3
ENDBRANCH   1   2
END_RES LEU A  10
BEGIN_RES CYS A  12
REMARK  2 active torsions:
REMARK  status: ('A' for Active; 'I' for Inactive)
REMARK    3  A    between atoms: CA   and  CB  
REMARK    4  A    between atoms: CB   and  SG  
ROOT
ATOM      6  CA  CYS A  12      -8.555   0.470   8.750  1.00 23.16     0.185 C 
ENDROOT
BRANCH   6   7
ATOM      7  CB  CYS A  12      -9.828   0.763   9.555  1.00 20.43     0.105 C 
BRANCH   7   8
ATOM      8  SG  CYS A  12     -10.861   2.132   8.948  1.00 24.64    -0.180 SA
ATOM      9  H04 CYS A  12     -11.288   2.864   9.985  1.00 24.64     0.101 HD
ENDBRANCH   7   8
ENDBRANCH   6   7
END_RES CYS A  12
BEGIN_RES GLN A  14
REMARK  3 active torsions:
REMARK  status: ('A' for Active; 'I' for Inactive)
REMARK    5  A    between atoms: CA   and  CB  
REMARK    6  A    between atoms: CB   and  CG  
REMARK    7  A    between atoms: CG   and  CD  
REMARK       I    between atoms: CD   and  NE2 
ROOT
ATOM     10  CA  GLN A  14      -4.645   5.402  11.377  1.00 10.43     0.177 C 
ENDROOT
BRANCH  10  11
ATOM     11  CB  GLN A  14      -5.541   5.549  12.608  1.00 14.45     0.044 C 
BRANCH  11  12
ATOM     12  CG  GLN A  14      -6.552   6.667  12.505  1.00 13.74     0.105 C 
BRANCH  12  13
ATOM     13  CD  GLN A  14      -5.912   8.033  12.575  1.00 16.29     0.215 C 
ATOM     14  NE2 GLN A  14      -6.474   8.982  11.859  1.00  8.57    -0.370 N 
ATOM     15  H06 GLN A  14      -6.090   9.916  11.868  1.00  8.57     0.159 HD
ATOM     16  H07 GLN A  14      -7.290   8.777  11.301  1.00  8.57     0.159 HD
ATOM     17  OE1 GLN A  14      -4.925   8.231  13.268  1.00 23.55    -0.274 OA
ENDBRANCH  12  13
ENDBRANCH  11  12
ENDBRANCH  10  11
END_RES GLN A  14
BEGIN_RES SER A  16
REMARK  2 active torsions:
REMARK  status: ('A' for Active; 'I' for Inactive)
REMARK    8  A    between atoms: CA   and  CB  
REMARK    9  A    between atoms: CB   and  OG  
ROOT
ATOM     18  CA  SER A  16      -1.305  10.019  14.282  1.00  2.34     0.200 C 
ENDROOT
BRANCH  18  19
ATOM     19  CB  SER A  16      -2.242   9.935  15.479  1.00  3.12     0.199 C 
BRANCH  19  20
ATOM     20  OG  SER A  16      -2.007   8.742  16.206  1.00  1.00    -0.398 OA
ATOM     21  H04 SER A  16      -2.844   8.311  16.393  1.00  1.00     0.209 HD
ENDBRANCH  19  20
ENDBRANCH  18  19
END_RES SER A  16
BEGIN_RES LEU A  32
REMARK  2 active torsions:
REMARK  status: ('A' for Active; 'I' for Inactive)
REMARK   10  A    between atoms: CA   and  CB  
REMARK   11  A    between atoms: CB   and  CG  
ROOT
ATOM     22  CA  LEU A  32     -10.272  -4.106   1.587  1.00 16.16     0.177 C 
ENDROOT
BRANCH  22  23
ATOM     23  CB  LEU A  32     -11.613  -3.858   0.880  1.00 12.35     0.038 C 
BRANCH  23  24
ATOM     24  CG  LEU A  32     -12.531  -5.096   0.940  1.00  9.77    -0.020 C 
ATOM     25  CD1 LEU A  32     -13.016  -5.322   2.353  1.00  4.35     0.009 C 
ATOM     26  CD2 LEU A  32     -13.711  -4.934   0.018  1.00 10.60     0.009 C 
ENDBRANCH  23  24
ENDBRANCH  22  23
END_RES LEU A  32
BEGIN_RES HIS A  38
REMARK  2 active torsions:
REMARK  status: ('A' for Active; 'I' for Inactive)
REMARK   12  A    between atoms: CA   and  CB  
REMARK   13  A    between atoms: CB   and  CG  
ROOT
ATOM     27  CA  HIS A  38     -10.959   4.941   1.621  1.00 16.94     0.182 C 
ENDROOT
BRANCH  27  28
ATOM     28  CB  HIS A  38     -11.810   4.840   2.881  1.00 15.47     0.095 C 
BRANCH  28  29
ATOM     29  CG  HIS A  38     -12.973   3.910   2.751  1.00 18.62     0.053 A 
ATOM     30  CD2 HIS A  38     -14.141   4.037   2.077  1.00 15.06     0.116 A 
ATOM     31  NE2 HIS A  38     -14.843   2.874   2.268  1.00 18.12    -0.359 N 
ATOM     32  CE1 HIS A  38     -14.135   2.063   3.031  1.00 14.78     0.207 A 
ATOM     33  H06 HIS A  38     -15.756   2.671   1.886  1.00 18.12     0.166 HD
ATOM     34  ND1 HIS A  38     -13.002   2.664   3.337  1.00 16.58    -0.247 NA
ENDBRANCH  28  29
ENDBRANCH  27  28
END_RES HIS A  38
BEGIN_RES TRP A  63
REMARK  2 active torsions:
REMARK  status: ('A' for Active; 'I' for Inactive)
REMARK   14  A    between atoms: CA   and  CB  
REMARK   15  A    between atoms: CB   and  CG  
ROOT
ATOM     35  CA  TRP A  63     -22.437   6.257   6.543  1.00 27.04     0.181 C 
ENDROOT
BRANCH  35  36
ATOM     36  CB  TRP A  63     -22.360   6.642   5.068  1.00 31.37     0.075 C 
BRANCH  36  37
ATOM     37  CG  TRP A  63     -20.970   6.573   4.472  1.00 34.37    -0.028 A 
ATOM     38  CD2 TRP A  63     -20.251   7.631   3.822  1.00 33.79    -0.002 A 
ATOM     39  CE3 TRP A  63     -20.558   8.952   3.486  1.00 32.99     0.014 A 
ATOM     40  CE2 TRP A  63     -18.973   7.127   3.495  1.00 35.84     0.042 A 
ATOM     41  CZ3 TRP A  63     -19.596   9.717   2.843  1.00 32.93     0.001 A 
ATOM     42  CH2 TRP A  63     -18.334   9.187   2.530  1.00 39.24     0.002 A 
ATOM     43  CZ2 TRP A  63     -18.005   7.896   2.848  1.00 37.99     0.030 A 
ATOM     44  NE1 TRP A  63     -18.925   5.829   3.924  1.00 37.98    -0.365 N 
ATOM     45  H06 TRP A  63     -18.134   5.208   3.828  1.00 37.98     0.165 HD
ATOM     46  CD1 TRP A  63     -20.127   5.507   4.506  1.00 38.16     0.096 A 
ENDBRANCH  36  37
ENDBRANCH  35  36
END_RES TRP A  63
BEGIN_RES LEU A  66
REMARK  2 active torsions:
REMARK  status: ('A' for Active; 'I' for Inactive)
REMARK   16  A    between atoms: CA   and  CB  
REMARK   17  A    between atoms: CB   and  CG  
ROOT
ATOM     47  CA  LEU A  66     -20.004   6.489  11.120  1.00 10.90     0.177 C 
ENDROOT
BRANCH  47  48
ATOM     48  CB  LEU A  66     -19.626   5.453  10.069  1.00 13.57     0.038 C 
BRANCH  48  49
ATOM     49  CG  LEU A  66     -19.349   4.031  10.556  1.00  8.73    -0.020 C 
ATOM     50  CD1 LEU A  66     -19.216   4.000  12.056  1.00 14.23     0.009 C 
ATOM     51  CD2 LEU A  66     -20.488   3.146  10.120  1.00  1.92     0.009 C 
ENDBRANCH  48  49
ENDBRANCH  47  48
END_RES LEU A  66
BEGIN_RES PHE A  70
REMARK  2 active torsions:
REMARK  status: ('A' for Active; 'I' for Inactive)
REMARK   18  A    between atoms: CA   and  CB  
REMARK   19  A    between atoms: CB   and  CG  
ROOT
ATOM     52  CA  PHE A  70     -14.974   9.434  13.165  1.00  8.78     0.180 C 
ENDROOT
BRANCH  52  53
ATOM     53  CB  PHE A  70     -14.707   9.132  11.681  1.00  6.33     0.073 C 
BRANCH  53  54
ATOM     54  CG  PHE A  70     -13.925   7.866  11.459  1.00  3.42    -0.056 A 
ATOM     55  CD1 PHE A  70     -13.662   7.402  10.179  1.00 13.88     0.007 A 
ATOM     56  CE1 PHE A  70     -12.972   6.194   9.980  1.00 12.71     0.001 A 
ATOM     57  CZ  PHE A  70     -12.540   5.443  11.074  1.00  4.21     0.000 A 
ATOM     58  CE2 PHE A  70     -12.794   5.896  12.355  1.00  2.83     0.001 A 
ATOM     59  CD2 PHE A  70     -13.485   7.106  12.544  1.00  1.00     0.007 A 
ENDBRANCH  53  54
ENDBRANCH  52  53
END_RES PHE A  70
BEGIN_RES TYR A  73
REMARK  3 active torsions:
REMARK  status: ('A' for Active; 'I' for Inactive)
REMARK   20  A    between atoms: CA   and  CB  
REMARK   21  A    between atoms: CB   and  CG  
REMARK   22  A    between atoms: CZ   and  OH  
ROOT
ATOM     60  CA  TYR A  73     -13.212  10.166  17.260  1.00 12.17     0.180 C 
ENDROOT
BRANCH  60  61
ATOM     61  CB  TYR A  73     -13.301   8.846  16.517  1.00 12.84     0.073 C 
BRANCH  61  62
ATOM     62  CG  TYR A  73     -13.666   7.703  17.399  1.00 15.89    -0.056 A 
ATOM     63  CD1 TYR A  73     -13.969   6.467  16.872  1.00 16.00     0.010 A 
ATOM     64  CE1 TYR A  73     -14.341   5.404  17.694  1.00 13.55     0.037 A 
ATOM     65  CZ  TYR A  73     -14.407   5.595  19.060  1.00 18.13     0.065 A 
ATOM     66  CE2 TYR A  73     -14.109   6.819  19.611  1.00 15.89     0.037 A 
ATOM     67  CD2 TYR A  73     -13.739   7.868  18.778  1.00 21.86     0.010 A 
BRANCH  65  68
ATOM     68  OH  TYR A  73     -14.766   4.561  19.889  1.00 12.12    -0.361 OA
ATOM     69  H08 TYR A  73     -15.711   4.405  19.817  1.00 12.12     0.217 HD
ENDBRANCH  65  68
ENDBRANCH  61  62
ENDBRANCH  60  61
END_RES TYR A  73
BEGIN_RES PHE A  77
REMARK  2 active torsions:
REMARK  status: ('A' for Active; 'I' for Inactive)
REMARK   23  A    between atoms: CA   and  CB  
REMARK   24  A    between atoms: CB   and  CG  
ROOT
ATOM     70  CA  PHE A  77      -8.400  10.581  20.110  1.00 17.17     0.180 C 
ENDROOT
BRANCH  70  71
ATOM     71  CB  PHE A  77      -8.228   9.750  18.851  1.00 10.44     0.073 C 
BRANCH  71  72
ATOM     72  CG  PHE A  77      -7.158   8.709  18.957  1.00  6.07    -0.056 A 
ATOM     73  CD2 PHE A  77      -6.070   8.736  18.115  1.00  9.61     0.007 A 
ATOM     74  CE2 PHE A  77      -5.071   7.774  18.208  1.00  1.00     0.001 A 
ATOM     75  CZ  PHE A  77      -5.161   6.773  19.159  1.00  1.92     0.000 A 
ATOM     76  CE1 PHE A  77      -6.242   6.733  20.011  1.00  9.25     0.001 A 
ATOM     77  CD1 PHE A  77      -7.239   7.703  19.906  1.00  9.63     0.007 A 
ENDBRANCH  71  72
ENDBRANCH  70  71
END_RES PHE A  77
BEGIN_RES LEU A  96
REMARK  2 active torsions:
REMARK  status: ('A' for Active; 'I' for Inactive)
REMARK   25  A    between atoms: CA   and  CB  
REMARK   26  A    between atoms: CB   and  CG  
ROOT
ATOM     78  CA  LEU A  96       0.717   6.481  17.359  1.00 16.08     0.177 C 
ENDROOT
BRANCH  78  79
ATOM     79  CB  LEU A  96      -0.370   7.101  18.230  1.00 18.83     0.038 C 
BRANCH  79  80
ATOM     80  CG  LEU A  96      -0.162   6.915  19.733  1.00 19.03    -0.020 C 
ATOM     81  CD1 LEU A  96       0.582   8.113  20.275  1.00 28.17     0.009 C 
ATOM     82  CD2 LEU A  96      -1.494   6.818  20.441  1.00 22.01     0.009 C 
ENDBRANCH  79  80
ENDBRANCH  78  79
END_RES LEU A  96
BEGIN_RES VAL A  98
REMARK  1 active torsions:
REMARK  status: ('A' for Active; 'I' for Inactive)
REMARK   27  A    between atoms: CA   and  CB  
ROOT
ATOM     83  CA  VAL A  98      -3.928   2.082  14.897  1.00 19.83     0.180 C 
ENDROOT
BRANCH  83  84
ATOM     84  CB  VAL A  98      -5.203   2.807  15.281  1.00 17.87     0.009 C 
ATOM     85  CG2 VAL A  98      -5.288   2.946  16.779  1.00 29.90     0.012 C 
ATOM     86  CG1 VAL A  98      -6.398   2.049  14.743  1.00 14.79     0.012 C 
ENDBRANCH  83  84
END_RES VAL A  98
BEGIN_RES ASN A 112
REMARK  2 active torsions:
REMARK  status: ('A' for Active; 'I' for Inactive)
REMARK   28  A    between atoms: CA   and  CB  
REMARK   29  A    between atoms: CB   and  CG  
REMARK       I    between atoms: CG   and  ND2 
ROOT
ATOM     87  CA  ASN A 112     -11.790  -8.793  14.069  1.00 37.70     0.185 C 
ENDROOT
BRANCH  87  88
ATOM     88  CB  ASN A 112     -12.992  -7.945  14.465  1.00 26.24     0.137 C 
BRANCH  88  89
ATOM     89  CG  ASN A 112     -13.830  -8.576  15.554  1.00 21.77     0.217 C 
ATOM     90  ND2 ASN A 112     -14.987  -9.114  15.169  1.00  9.31    -0.370 N 
ATOM     91  H04 ASN A 112     -15.593  -9.550  15.850  1.00  9.31     0.159 HD
ATOM     92  H05 ASN A 112     -15.257  -9.087  14.196  1.00  9.31     0.159 HD
ATOM     93  OD1 ASN A 112     -13.447  -8.578  16.730  1.00 21.61    -0.274 OA
ENDBRANCH  88  89
ENDBRANCH  87  88
END_RES ASN A 112
BEGIN_RES PHE A 114
REMARK  2 active torsions:
REMARK  status: ('A' for Active; 'I' for Inactive)
REMARK   30  A    between atoms: CA   and  CB  
REMARK   31  A    between atoms: CB   and  CG  
ROOT
ATOM     94  CA  PHE A 114      -7.754  -3.619  17.012  1.00 26.06     0.180 C 
ENDROOT
BRANCH  94  95
ATOM     95  CB  PHE A 114      -8.890  -3.080  17.867  1.00 19.95     0.073 C 
BRANCH  95  96
ATOM     96  CG  PHE A 114      -9.201  -1.643  17.601  1.00 17.65    -0.056 A 
ATOM     97  CD1 PHE A 114      -8.181  -0.709  17.444  1.00 13.01     0.007 A 
ATOM     98  CE1 PHE A 114      -8.469   0.631  17.226  1.00  6.74     0.001 A 
ATOM     99  CZ  PHE A 114      -9.792   1.057  17.157  1.00  6.27     0.000 A 
ATOM    100  CE2 PHE A 114     -10.817   0.137  17.310  1.00 17.36     0.001 A 
ATOM    101  CD2 PHE A 114     -10.519  -1.212  17.531  1.00 18.39     0.007 A 
ENDBRANCH  95  96
ENDBRANCH  94  95
END_RES PHE A 114
BEGIN_RES VAL A 116
REMARK  1 active torsions:
REMARK  status: ('A' for Active; 'I' for Inactive)
REMARK   32  A    between atoms: CA   and  CB  
ROOT
ATOM    102  CA  VAL A 116      -2.467   0.283  18.565  1.00 13.48     0.180 C 
ENDROOT
BRANCH 102 103
ATOM    103  CB  VAL A 116      -3.101   1.238  19.599  1.00 20.86     0.009 C 
ATOM    104  CG1 VAL A 116      -2.770   2.686  19.229  1.00 25.01     0.012 C 
ATOM    105  CG2 VAL A 116      -4.592   1.015  19.694  1.00 25.34     0.012 C 
ENDBRANCH 102 103
END_RES VAL A 116
BEGIN_RES ILE A 123
REMARK  2 active torsions:
REMARK  status: ('A' for Active; 'I' for Inactive)
REMARK   33  A    between atoms: CA   and  CB  
REMARK   34  A    between atoms: CB   and  CG1 
ROOT
ATOM    106  CA  ILE A 123       1.557  -1.626  23.222  1.00 15.07     0.180 C 
ENDROOT
BRANCH 106 107
ATOM    107  CB  ILE A 123       1.697  -0.112  23.461  1.00 14.41     0.013 C 
ATOM    108  CG2 ILE A 123       3.108   0.211  23.919  1.00 18.35     0.012 C 
BRANCH 107 109
ATOM    109  CG1 ILE A 123       1.367   0.659  22.185  1.00 15.23     0.002 C 
ATOM    110  CD1 ILE A 123       0.215   1.622  22.340  1.00 14.67     0.005 C 
ENDBRANCH 107 109
ENDBRANCH 106 107
END_RES ILE A 123
BEGIN_RES LEU A 124
REMARK  2 active torsions:
REMARK  status: ('A' for Active; 'I' for Inactive)
REMARK   35  A    between atoms: CA   and  CB  
REMARK   36  A    between atoms: CB   and  CG  
ROOT
ATOM    111  CA  LEU A 124      -2.057  -2.686  23.524  1.00 11.86     0.177 C 
ENDROOT
BRANCH 111 112
ATOM    112  CB  LEU A 124      -2.698  -1.652  24.429  1.00 14.60     0.038 C 
BRANCH 112 113
ATOM    113  CG  LEU A 124      -2.662  -0.259  23.820  1.00 16.19    -0.020 C 
ATOM    114  CD1 LEU A 124      -4.082   0.124  23.358  1.00 22.07     0.009 C 
ATOM    115  CD2 LEU A 124      -2.118   0.719  24.831  1.00  9.12     0.009 C 
ENDBRANCH 112 113
ENDBRANCH 111 112
END_RES LEU A 124
BEGIN_RES PHE A 126
REMARK  2 active torsions:
REMARK  status: ('A' for Active; 'I' for Inactive)
REMARK   37  A    between atoms: CA   and  CB  
REMARK   38  A    between atoms: CB   and  CG  
ROOT
ATOM    116  CA  PHE A 126      -8.784  -4.792  22.233  1.00 23.15     0.180 C 
ENDROOT
BRANCH 116 117
ATOM    117  CB  PHE A 126      -9.823  -4.011  21.461  1.00 20.65     0.073 C 
BRANCH 117 118
ATOM    118  CG  PHE A 126     -10.956  -3.554  22.294  1.00 23.65    -0.056 A 
ATOM    119  CD2 PHE A 126     -12.214  -4.110  22.141  1.00 36.63     0.007 A 
ATOM    120  CE2 PHE A 126     -13.287  -3.677  22.932  1.00 36.27     0.001 A 
ATOM    121  CZ  PHE A 126     -13.091  -2.682  23.878  1.00 18.06     0.000 A 
ATOM    122  CE1 PHE A 126     -11.837  -2.127  24.035  1.00  5.50     0.001 A 
ATOM    123  CD1 PHE A 126     -10.774  -2.566  23.246  1.00 15.29     0.007 A 
ENDBRANCH 117 118
ENDBRANCH 116 117
END_RES PHE A 126
BEGIN_RES TRP A 131
REMARK  2 active torsions:
REMARK  status: ('A' for Active; 'I' for Inactive)
REMARK   39  A    between atoms: CA   and  CB  
REMARK   40  A    between atoms: CB   and  CG  
ROOT
ATOM    124  CA  TRP A 131      -8.096  -3.335  26.542  1.00 14.52     0.181 C 
ENDROOT
BRANCH 124 125
ATOM    125  CB  TRP A 131      -7.651  -1.877  26.607  1.00 13.06     0.075 C 
BRANCH 125 126
ATOM    126  CG  TRP A 131      -8.066  -1.047  25.413  1.00 16.97    -0.028 A 
ATOM    127  CD2 TRP A 131      -9.152  -0.117  25.357  1.00 11.34    -0.002 A 
ATOM    128  CE2 TRP A 131      -9.172   0.432  24.060  1.00  5.87     0.042 A 
ATOM    129  CE3 TRP A 131     -10.112   0.302  26.284  1.00  3.80     0.014 A 
ATOM    130  CZ2 TRP A 131     -10.114   1.384  23.667  1.00  1.35     0.030 A 
ATOM    131  NE1 TRP A 131      -8.146  -0.137  23.356  1.00 13.90    -0.365 N 
ATOM    132  CH2 TRP A 131     -11.044   1.779  24.597  1.00  1.00     0.002 A 
ATOM    133  CZ3 TRP A 131     -11.049   1.244  25.899  1.00  1.00     0.001 A 
ATOM    134  CD1 TRP A 131      -7.486  -1.024  24.174  1.00 17.22     0.096 A 
ATOM    135  H07 TRP A 131      -7.912   0.061  22.394  1.00 13.90     0.165 HD
ENDBRANCH 125 126
ENDBRANCH 124 125
END_RES TRP A 131
BEGIN_RES LEU A 148
REMARK  2 active torsions:
REMARK  status: ('A' for Active; 'I' for Inactive)
REMARK   41  A    between atoms: CA   and  CB  
REMARK   42  A    between atoms: CB   and  CG  
ROOT
ATOM    136  CA  LEU A 148      -9.018   3.259  29.295  1.00 16.99     0.177 C 
ENDROOT
BRANCH 136 137
ATOM    137  CB  LEU A 148      -8.166   2.574  28.236  1.00  6.39     0.038 C 
BRANCH 137 138
ATOM    138  CG  LEU A 148      -7.555   3.361  27.095  1.00  1.00    -0.020 C 
ATOM    139  CD2 LEU A 148      -8.632   3.987  26.258  1.00  1.00     0.009 C 
ATOM    140  CD1 LEU A 148      -6.714   2.412  26.260  1.00  2.71     0.009 C 
ENDBRANCH 137 138
ENDBRANCH 136 137
END_RES LEU A 148
BEGIN_RES THR A 154
REMARK  2 active torsions:
REMARK  status: ('A' for Active; 'I' for Inactive)
REMARK   43  A    between atoms: CA   and  CB  
REMARK   44  A    between atoms: CB   and  OG1 
ROOT
ATOM    141  CA  THR A 154     -15.990   3.959  24.426  1.00 20.45     0.205 C 
ENDROOT
BRANCH 141 142
ATOM    142  CB  THR A 154     -14.777   4.829  24.694  1.00 16.79     0.146 C 
ATOM    143  CG2 THR A 154     -13.662   4.485  23.726  1.00 20.24     0.042 C 
BRANCH 142 144
ATOM    144  OG1 THR A 154     -15.141   6.203  24.511  1.00 18.84    -0.393 OA
ATOM    145  H06 THR A 154     -15.236   6.626  25.367  1.00 18.84     0.210 HD
ENDBRANCH 142 144
ENDBRANCH 141 142
END_RES THR A 154
BEGIN_RES VAL A 158
REMARK  1 active torsions:
REMARK  status: ('A' for Active; 'I' for Inactive)
REMARK   45  A    between atoms: CA   and  CB  
ROOT
ATOM    146  CA  VAL A 158     -15.487  -0.189  19.892  1.00 15.49     0.180 C 
ENDROOT
BRANCH 146 147
ATOM    147  CB  VAL A 158     -14.291  -0.273  20.822  1.00  6.52     0.009 C 
ATOM    148  CG1 VAL A 158     -13.248  -1.220  20.275  1.00  1.00     0.012 C 
ATOM    149  CG2 VAL A 158     -13.720   1.100  20.995  1.00  5.99     0.012 C 
ENDBRANCH 146 147
END_RES VAL A 158
BEGIN_RES LEU A 161
REMARK  2 active torsions:
REMARK  status: ('A' for Active; 'I' for Inactive)
REMARK   46  A    between atoms: CA   and  CB  
REMARK   47  A    between atoms: CB   and  CG  
ROOT
ATOM    150  CA  LEU A 161     -18.031  -1.858  15.935  1.00 13.31     0.177 C 
ENDROOT
BRANCH 150 151
ATOM    151  CB  LEU A 161     -17.046  -0.706  16.001  1.00 14.13     0.038 C 
BRANCH 151 152
ATOM    152  CG  LEU A 161     -17.481   0.593  15.334  1.00 19.39    -0.020 C 
ATOM    153  CD2 LEU A 161     -17.488   0.432  13.833  1.00 27.75     0.009 C 
ATOM    154  CD1 LEU A 161     -16.527   1.687  15.731  1.00 18.59     0.009 C 
ENDBRANCH 151 152
ENDBRANCH 150 151
END_RES LEU A 161
BEGIN_RES GLN A 168
REMARK  3 active torsions:
REMARK  status: ('A' for Active; 'I' for Inactive)
REMARK   48  A    between atoms: CA   and  CB  
REMARK   49  A    between atoms: CB   and  CG  
REMARK   50  A    between atoms: CG   and  CD  
REMARK       I    between atoms: CD   and  NE2 
ROOT
ATOM    155  CA  GLN A 168     -22.035  -6.020   8.155  1.00 30.94     0.177 C 
ENDROOT
BRANCH 155 156
ATOM    156  CB  GLN A 168     -23.054  -5.218   8.946  1.00 41.76     0.044 C 
BRANCH 156 157
ATOM    157  CG  GLN A 168     -24.465  -5.733   8.849  1.00 61.20     0.105 C 
BRANCH 157 158
ATOM    158  CD  GLN A 168     -25.172  -5.212   7.613  1.00 75.49     0.215 C 
ATOM    159  NE2 GLN A 168     -25.948  -6.084   6.966  1.00 85.00    -0.370 N 
ATOM    160  H06 GLN A 168     -26.444  -5.798   6.134  1.00 85.00     0.159 HD
ATOM    161  H07 GLN A 168     -26.038  -7.030   7.308  1.00 85.00     0.159 HD
ATOM    162  OE1 GLN A 168     -25.022  -4.041   7.236  1.00 73.64    -0.274 OA
ENDBRANCH 157 158
ENDBRANCH 156 157
ENDBRANCH 155 156
END_RES GLN A 168
ENDMDL
MODEL 5
REMARK VINA RESULT:      -7.9      1.848      4.487
REMARK  Name = human_CD1d_tritonX_pred.rank_0
REMARK  32 active torsions:
REMARK  status: ('A' for Active; 'I' for Inactive)
REMARK    1  A    between atoms: O_2  and  C_21
REMARK    2  A    between atoms: O_2  and  C_23
REMARK    3  A    between atoms: C_3  and  C_5
REMARK    4  A    between atoms: C_3  and  C_15
REMARK    5  A    between atoms: O_4  and  C_24
REMARK    6  A    between atoms: O_4  and  C_25
REMARK    7  A    between atoms: O_6  and  C_26
REMARK    8  A    between atoms: O_6  and  C_27
REMARK    9  A    between atoms: O_8  and  C_28
REMARK   10  A    between atoms: O_8  and  C_29
REMARK   11  A    between atoms: O_10  and  C_30
REMARK   12  A    between atoms: O_10  and  C_31
REMARK   13  A    between atoms: O_12  and  C_32
REMARK   14  A    between atoms: O_12  and  C_33
REMARK   15  A    between atoms: O_14  and  C_34
REMARK   16  A    between atoms: O_14  and  C_35
REMARK   17  A    between atoms: O_16  and  C_36
REMARK   18  A    between atoms: O_16  and  C_37
REMARK   19  A    between atoms: O_18  and  C_38
REMARK   20  A    between atoms: O_18  and  C_39
REMARK   21  A    between atoms: O_20  and  C_40
REMARK   22  A    between atoms: O_20  and  C_41
REMARK   23  A    between atoms: C_23  and  C_24
REMARK   24  A    between atoms: C_25  and  C_26
REMARK   25  A    between atoms: C_27  and  C_28
REMARK   26  A    between atoms: C_29  and  C_30
REMARK   27  A    between atoms: C_31  and  C_32
REMARK   28  A    between atoms: C_33  and  C_34
REMARK   29  A    between atoms: C_35  and  C_36
REMARK   30  A    between atoms: C_37  and  C_38
REMARK   31  A    between atoms: C_39  and  C_40
REMARK   32  A    between atoms: C_41  and  C_42
REMARK                            x       y       z     vdW  Elec       q    Type
REMARK                         _______ _______ _______ _____ _____    ______ ____
ROOT
ATOM      1  O   UNL     1     -14.278   0.257  13.966  0.00  0.00    +0.000 OA
ENDROOT
BRANCH   1   2
ATOM      2  C   UNL     1     -12.866   0.028  13.865  0.00  0.00    +0.000 C 
BRANCH   2   3
ATOM      3  C   UNL     1     -12.131   1.361  13.898  0.00  0.00    +0.000 C 
BRANCH   3   4
ATOM      4  O   UNL     1     -12.312   2.049  15.117  0.00  0.00    +0.000 OA
BRANCH   4   5
ATOM      5  C   UNL     1     -12.320   3.467  15.078  0.00  0.00    +0.000 C 
BRANCH   5   6
ATOM      6  C   UNL     1     -10.953   4.032  14.705  0.00  0.00    +0.000 C 
BRANCH   6   7
ATOM      7  O   UNL     1     -11.076   5.409  14.370  0.00  0.00    +0.000 OA
BRANCH   7   8
ATOM      8  C   UNL     1      -9.885   6.025  13.843  0.00  0.00    +0.000 C 
BRANCH   8   9
ATOM      9  C   UNL     1      -9.622   7.346  14.563  0.00  0.00    +0.000 C 
BRANCH   9  10
ATOM     10  O   UNL     1      -8.591   7.205  15.552  0.00  0.00    +0.000 OA
BRANCH  10  14
ATOM     11  C   UNL     1      -9.346   5.130  19.033  0.00  0.00    +0.000 A 
ATOM     12  C   UNL     1     -10.229   6.104  18.527  0.00  0.00    +0.000 A 
ATOM     13  C   UNL     1      -9.970   6.790  17.380  0.00  0.00    +0.000 A 
ATOM     14  C   UNL     1      -8.834   6.471  16.683  0.00  0.00    +0.000 A 
ATOM     15  C   UNL     1      -7.953   5.529  17.122  0.00  0.00    +0.000 A 
ATOM     16  C   UNL     1      -8.189   4.846  18.271  0.00  0.00    +0.000 A 
BRANCH  11  18
ATOM     17  C   UNL     1     -10.982   3.778  20.258  0.00  0.00    +0.000 C 
ATOM     18  C   UNL     1      -9.591   4.371  20.314  0.00  0.00    +0.000 C 
ATOM     19  C   UNL     1      -8.585   3.261  20.344  0.00  0.00    +0.000 C 
BRANCH  18  20
ATOM     20  C   UNL     1      -9.416   5.221  21.593  0.00  0.00    +0.000 C 
ATOM     21  C   UNL     1     -10.427   4.799  22.645  0.00  0.00    +0.000 C 
ATOM     22  C   UNL     1      -9.648   6.665  21.324  0.00  0.00    +0.000 C 
ATOM     23  C   UNL     1      -8.046   5.019  22.187  0.00  0.00    +0.000 C 
ENDBRANCH  18  20
ENDBRANCH  11  18
ENDBRANCH  10  14
ENDBRANCH   9  10
ENDBRANCH   8   9
ENDBRANCH   7   8
ENDBRANCH   6   7
ENDBRANCH   5   6
ENDBRANCH   4   5
ENDBRANCH   3   4
ENDBRANCH   2   3
ENDBRANCH   1   2
BRANCH   1  24
ATOM     24  C   UNL     1     -14.900   0.442  12.674  0.00  0.00    +0.000 C 
BRANCH  24  25
ATOM     25  C   UNL     1     -15.718  -0.767  12.281  0.00  0.00    +0.000 C 
BRANCH  25  26
ATOM     26  O   UNL     1     -15.600  -1.019  10.874  0.00  0.00    +0.000 OA
BRANCH  26  27
ATOM     27  C   UNL     1     -14.655  -0.169  10.238  0.00  0.00    +0.000 C 
BRANCH  27  28
ATOM     28  C   UNL     1     -15.273   0.588   9.073  0.00  0.00    +0.000 C 
BRANCH  28  29
ATOM     29  O   UNL     1     -16.316   1.454   9.514  0.00  0.00    +0.000 OA
BRANCH  29  30
ATOM     30  C   UNL     1     -17.573   1.199   8.972  0.00  0.00    +0.000 C 
BRANCH  30  31
ATOM     31  C   UNL     1     -17.887   2.153   7.845  0.00  0.00    +0.000 C 
BRANCH  31  32
ATOM     32  O   UNL     1     -17.332   3.436   8.059  0.00  0.00    +0.000 OA
BRANCH  32  33
ATOM     33  C   UNL     1     -17.489   4.359   6.981  0.00  0.00    +0.000 C 
BRANCH  33  34
ATOM     34  C   UNL     1     -16.651   3.937   5.801  0.00  0.00    +0.000 C 
BRANCH  34  35
ATOM     35  O   UNL     1     -15.654   4.884   5.502  0.00  0.00    +0.000 OA
BRANCH  35  36
ATOM     36  C   UNL     1     -14.574   4.913   6.375  0.00  0.00    +0.000 C 
BRANCH  36  37
ATOM     37  C   UNL     1     -13.860   3.580   6.373  0.00  0.00    +0.000 C 
BRANCH  37  38
ATOM     38  O   UNL     1     -12.430   3.747   6.264  0.00  0.00    +0.000 OA
BRANCH  38  39
ATOM     39  C   UNL     1     -11.966   5.007   6.755  0.00  0.00    +0.000 C 
BRANCH  39  40
ATOM     40  C   UNL     1     -10.485   5.196   6.519  0.00  0.00    +0.000 C 
BRANCH  40  41
ATOM     41  O   UNL     1      -9.788   5.591   7.692  0.00  0.00    +0.000 OA
BRANCH  41  42
ATOM     42  C   UNL     1      -9.419   4.506   8.546  0.00  0.00    +0.000 C 
BRANCH  42  44
ATOM     43  O   UNL     1      -8.755   3.958  10.771  0.00  0.00    +0.000 OA
ATOM     44  C   UNL     1      -9.410   4.934  10.001  0.00  0.00    +0.000 C 
ENDBRANCH  42  44
ENDBRANCH  41  42
ENDBRANCH  40  41
ENDBRANCH  39  40
ENDBRANCH  38  39
ENDBRANCH  37  38
ENDBRANCH  36  37
ENDBRANCH  35  36
ENDBRANCH  34  35
ENDBRANCH  33  34
ENDBRANCH  32  33
ENDBRANCH  31  32
ENDBRANCH  30  31
ENDBRANCH  29  30
ENDBRANCH  28  29
ENDBRANCH  27  28
ENDBRANCH  26  27
ENDBRANCH  25  26
ENDBRANCH  24  25
ENDBRANCH   1  24
TORSDOF 32
BEGIN_RES LEU A  10
REMARK  2 active torsions:
REMARK  status: ('A' for Active; 'I' for Inactive)
REMARK    1  A    between atoms: CA   and  CB  
REMARK    2  A    between atoms: CB   and  CG  
ROOT
ATOM      1  CA  LEU A  10     -10.775  -4.871   5.898  1.00 25.14     0.177 C 
ENDROOT
BRANCH   1   2
ATOM      2  CB  LEU A  10     -12.191  -4.387   6.226  1.00 17.87     0.038 C 
BRANCH   2   3
ATOM      3  CG  LEU A  10     -12.359  -2.866   6.214  1.00 24.95    -0.020 C 
ATOM      4  CD2 LEU A  10     -13.583  -2.505   6.985  1.00 26.38     0.009 C 
ATOM      5  CD1 LEU A  10     -12.448  -2.341   4.791  1.00 28.12     0.009 C 
ENDBRANCH   2   3
ENDBRANCH   1   2
END_RES LEU A  10
BEGIN_RES CYS A  12
REMARK  2 active torsions:
REMARK  status: ('A' for Active; 'I' for Inactive)
REMARK    3  A    between atoms: CA   and  CB  
REMARK    4  A    between atoms: CB   and  SG  
ROOT
ATOM      6  CA  CYS A  12      -8.555   0.470   8.750  1.00 23.16     0.185 C 
ENDROOT
BRANCH   6   7
ATOM      7  CB  CYS A  12      -9.828   0.763   9.555  1.00 20.43     0.105 C 
BRANCH   7   8
ATOM      8  SG  CYS A  12     -11.329   1.099   8.584  1.00 24.64    -0.180 SA
ATOM      9  H04 CYS A  12     -11.119   0.761   7.305  1.00 24.64     0.101 HD
ENDBRANCH   7   8
ENDBRANCH   6   7
END_RES CYS A  12
BEGIN_RES GLN A  14
REMARK  3 active torsions:
REMARK  status: ('A' for Active; 'I' for Inactive)
REMARK    5  A    between atoms: CA   and  CB  
REMARK    6  A    between atoms: CB   and  CG  
REMARK    7  A    between atoms: CG   and  CD  
REMARK       I    between atoms: CD   and  NE2 
ROOT
ATOM     10  CA  GLN A  14      -4.645   5.402  11.377  1.00 10.43     0.177 C 
ENDROOT
BRANCH  10  11
ATOM     11  CB  GLN A  14      -5.541   5.549  12.608  1.00 14.45     0.044 C 
BRANCH  11  12
ATOM     12  CG  GLN A  14      -6.522   6.695  12.524  1.00 13.74     0.105 C 
BRANCH  12  13
ATOM     13  CD  GLN A  14      -5.924   8.002  12.986  1.00 16.29     0.215 C 
ATOM     14  NE2 GLN A  14      -6.082   8.302  14.257  1.00  8.57    -0.370 N 
ATOM     15  H06 GLN A  14      -5.702   9.163  14.623  1.00  8.57     0.159 HD
ATOM     16  H07 GLN A  14      -6.583   7.671  14.866  1.00  8.57     0.159 HD
ATOM     17  OE1 GLN A  14      -5.325   8.731  12.210  1.00 23.55    -0.274 OA
ENDBRANCH  12  13
ENDBRANCH  11  12
ENDBRANCH  10  11
END_RES GLN A  14
BEGIN_RES SER A  16
REMARK  2 active torsions:
REMARK  status: ('A' for Active; 'I' for Inactive)
REMARK    8  A    between atoms: CA   and  CB  
REMARK    9  A    between atoms: CB   and  OG  
ROOT
ATOM     18  CA  SER A  16      -1.305  10.019  14.282  1.00  2.34     0.200 C 
ENDROOT
BRANCH  18  19
ATOM     19  CB  SER A  16      -2.242   9.935  15.479  1.00  3.12     0.199 C 
BRANCH  19  20
ATOM     20  OG  SER A  16      -3.453   9.298  15.113  1.00  1.00    -0.398 OA
ATOM     21  H04 SER A  16      -3.342   8.346  15.162  1.00  1.00     0.209 HD
ENDBRANCH  19  20
ENDBRANCH  18  19
END_RES SER A  16
BEGIN_RES LEU A  32
REMARK  2 active torsions:
REMARK  status: ('A' for Active; 'I' for Inactive)
REMARK   10  A    between atoms: CA   and  CB  
REMARK   11  A    between atoms: CB   and  CG  
ROOT
ATOM     22  CA  LEU A  32     -10.272  -4.106   1.587  1.00 16.16     0.177 C 
ENDROOT
BRANCH  22  23
ATOM     23  CB  LEU A  32     -11.613  -3.858   0.880  1.00 12.35     0.038 C 
BRANCH  23  24
ATOM     24  CG  LEU A  32     -12.660  -4.932   1.240  1.00  9.77    -0.020 C 
ATOM     25  CD1 LEU A  32     -12.384  -6.209   0.482  1.00  4.35     0.009 C 
ATOM     26  CD2 LEU A  32     -12.656  -5.210   2.721  1.00 10.60     0.009 C 
ENDBRANCH  23  24
ENDBRANCH  22  23
END_RES LEU A  32
BEGIN_RES HIS A  38
REMARK  2 active torsions:
REMARK  status: ('A' for Active; 'I' for Inactive)
REMARK   12  A    between atoms: CA   and  CB  
REMARK   13  A    between atoms: CB   and  CG  
ROOT
ATOM     27  CA  HIS A  38     -10.959   4.941   1.621  1.00 16.94     0.182 C 
ENDROOT
BRANCH  27  28
ATOM     28  CB  HIS A  38     -11.810   4.840   2.881  1.00 15.47     0.095 C 
BRANCH  28  29
ATOM     29  CG  HIS A  38     -13.281   4.909   2.623  1.00 18.62     0.053 A 
ATOM     30  CD2 HIS A  38     -14.213   3.931   2.529  1.00 15.06     0.116 A 
ATOM     31  NE2 HIS A  38     -15.419   4.545   2.312  1.00 18.12    -0.359 N 
ATOM     32  CE1 HIS A  38     -15.237   5.851   2.273  1.00 14.78     0.207 A 
ATOM     33  H06 HIS A  38     -16.306   4.073   2.200  1.00 18.12     0.166 HD
ATOM     34  ND1 HIS A  38     -13.955   6.098   2.457  1.00 16.58    -0.247 NA
ENDBRANCH  28  29
ENDBRANCH  27  28
END_RES HIS A  38
BEGIN_RES TRP A  63
REMARK  2 active torsions:
REMARK  status: ('A' for Active; 'I' for Inactive)
REMARK   14  A    between atoms: CA   and  CB  
REMARK   15  A    between atoms: CB   and  CG  
ROOT
ATOM     35  CA  TRP A  63     -22.437   6.257   6.543  1.00 27.04     0.181 C 
ENDROOT
BRANCH  35  36
ATOM     36  CB  TRP A  63     -22.360   6.642   5.068  1.00 31.37     0.075 C 
BRANCH  36  37
ATOM     37  CG  TRP A  63     -20.960   6.644   4.490  1.00 34.37    -0.028 A 
ATOM     38  CD2 TRP A  63     -20.293   7.732   3.836  1.00 33.79    -0.002 A 
ATOM     39  CE3 TRP A  63     -20.669   9.029   3.478  1.00 32.99     0.014 A 
ATOM     40  CE2 TRP A  63     -18.985   7.297   3.532  1.00 35.84     0.042 A 
ATOM     41  CZ3 TRP A  63     -19.743   9.839   2.836  1.00 32.93     0.001 A 
ATOM     42  CH2 TRP A  63     -18.449   9.376   2.547  1.00 39.24     0.002 A 
ATOM     43  CZ2 TRP A  63     -18.052   8.111   2.887  1.00 37.99     0.030 A 
ATOM     44  NE1 TRP A  63     -18.869   6.009   3.979  1.00 37.98    -0.365 N 
ATOM     45  H06 TRP A  63     -18.043   5.433   3.903  1.00 37.98     0.165 HD
ATOM     46  CD1 TRP A  63     -20.059   5.628   4.550  1.00 38.16     0.096 A 
ENDBRANCH  36  37
ENDBRANCH  35  36
END_RES TRP A  63
BEGIN_RES LEU A  66
REMARK  2 active torsions:
REMARK  status: ('A' for Active; 'I' for Inactive)
REMARK   16  A    between atoms: CA   and  CB  
REMARK   17  A    between atoms: CB   and  CG  
ROOT
ATOM     47  CA  LEU A  66     -20.004   6.489  11.120  1.00 10.90     0.177 C 
ENDROOT
BRANCH  47  48
ATOM     48  CB  LEU A  66     -19.626   5.453  10.069  1.00 13.57     0.038 C 
BRANCH  48  49
ATOM     49  CG  LEU A  66     -19.481   4.005  10.535  1.00  8.73    -0.020 C 
ATOM     50  CD1 LEU A  66     -19.131   3.950  11.999  1.00 14.23     0.009 C 
ATOM     51  CD2 LEU A  66     -20.786   3.291  10.289  1.00  1.92     0.009 C 
ENDBRANCH  48  49
ENDBRANCH  47  48
END_RES LEU A  66
BEGIN_RES PHE A  70
REMARK  2 active torsions:
REMARK  status: ('A' for Active; 'I' for Inactive)
REMARK   18  A    between atoms: CA   and  CB  
REMARK   19  A    between atoms: CB   and  CG  
ROOT
ATOM     52  CA  PHE A  70     -14.974   9.434  13.165  1.00  8.78     0.180 C 
ENDROOT
BRANCH  52  53
ATOM     53  CB  PHE A  70     -14.707   9.132  11.681  1.00  6.33     0.073 C 
BRANCH  53  54
ATOM     54  CG  PHE A  70     -14.083   7.783  11.448  1.00  3.42    -0.056 A 
ATOM     55  CD1 PHE A  70     -13.632   7.411  10.190  1.00 13.88     0.007 A 
ATOM     56  CE1 PHE A  70     -13.093   6.131   9.969  1.00 12.71     0.001 A 
ATOM     57  CZ  PHE A  70     -13.004   5.217  11.019  1.00  4.21     0.000 A 
ATOM     58  CE2 PHE A  70     -13.447   5.577  12.278  1.00  2.83     0.001 A 
ATOM     59  CD2 PHE A  70     -13.985   6.858  12.488  1.00  1.00     0.007 A 
ENDBRANCH  53  54
ENDBRANCH  52  53
END_RES PHE A  70
BEGIN_RES TYR A  73
REMARK  3 active torsions:
REMARK  status: ('A' for Active; 'I' for Inactive)
REMARK   20  A    between atoms: CA   and  CB  
REMARK   21  A    between atoms: CB   and  CG  
REMARK   22  A    between atoms: CZ   and  OH  
ROOT
ATOM     60  CA  TYR A  73     -13.212  10.166  17.260  1.00 12.17     0.180 C 
ENDROOT
BRANCH  60  61
ATOM     61  CB  TYR A  73     -13.301   8.846  16.517  1.00 12.84     0.073 C 
BRANCH  61  62
ATOM     62  CG  TYR A  73     -13.599   7.693  17.410  1.00 15.89    -0.056 A 
ATOM     63  CD1 TYR A  73     -13.546   7.822  18.780  1.00 16.00     0.010 A 
ATOM     64  CE1 TYR A  73     -13.795   6.735  19.618  1.00 13.55     0.037 A 
ATOM     65  CZ  TYR A  73     -14.099   5.508  19.063  1.00 18.13     0.065 A 
ATOM     66  CE2 TYR A  73     -14.159   5.353  17.698  1.00 15.89     0.037 A 
ATOM     67  CD2 TYR A  73     -13.909   6.446  16.878  1.00 21.86     0.010 A 
BRANCH  65  68
ATOM     68  OH  TYR A  73     -14.353   4.426  19.869  1.00 12.12    -0.361 OA
ATOM     69  H08 TYR A  73     -14.273   4.687  20.790  1.00 12.12     0.217 HD
ENDBRANCH  65  68
ENDBRANCH  61  62
ENDBRANCH  60  61
END_RES TYR A  73
BEGIN_RES PHE A  77
REMARK  2 active torsions:
REMARK  status: ('A' for Active; 'I' for Inactive)
REMARK   23  A    between atoms: CA   and  CB  
REMARK   24  A    between atoms: CB   and  CG  
ROOT
ATOM     70  CA  PHE A  77      -8.400  10.581  20.110  1.00 17.17     0.180 C 
ENDROOT
BRANCH  70  71
ATOM     71  CB  PHE A  77      -8.228   9.750  18.851  1.00 10.44     0.073 C 
BRANCH  71  72
ATOM     72  CG  PHE A  77      -7.088   8.783  18.918  1.00  6.07    -0.056 A 
ATOM     73  CD2 PHE A  77      -6.155   8.730  17.907  1.00  9.61     0.007 A 
ATOM     74  CE2 PHE A  77      -5.092   7.836  17.962  1.00  1.00     0.001 A 
ATOM     75  CZ  PHE A  77      -4.960   6.985  19.046  1.00  1.92     0.000 A 
ATOM     76  CE1 PHE A  77      -5.883   7.027  20.066  1.00  9.25     0.001 A 
ATOM     77  CD1 PHE A  77      -6.946   7.927  19.998  1.00  9.63     0.007 A 
ENDBRANCH  71  72
ENDBRANCH  70  71
END_RES PHE A  77
BEGIN_RES LEU A  96
REMARK  2 active torsions:
REMARK  status: ('A' for Active; 'I' for Inactive)
REMARK   25  A    between atoms: CA   and  CB  
REMARK   26  A    between atoms: CB   and  CG  
ROOT
ATOM     78  CA  LEU A  96       0.717   6.481  17.359  1.00 16.08     0.177 C 
ENDROOT
BRANCH  78  79
ATOM     79  CB  LEU A  96      -0.370   7.101  18.230  1.00 18.83     0.038 C 
BRANCH  79  80
ATOM     80  CG  LEU A  96      -0.845   6.214  19.380  1.00 19.03    -0.020 C 
ATOM     81  CD1 LEU A  96       0.362   5.619  20.068  1.00 28.17     0.009 C 
ATOM     82  CD2 LEU A  96      -1.618   7.029  20.391  1.00 22.01     0.009 C 
ENDBRANCH  79  80
ENDBRANCH  78  79
END_RES LEU A  96
BEGIN_RES VAL A  98
REMARK  1 active torsions:
REMARK  status: ('A' for Active; 'I' for Inactive)
REMARK   27  A    between atoms: CA   and  CB  
ROOT
ATOM     83  CA  VAL A  98      -3.928   2.082  14.897  1.00 19.83     0.180 C 
ENDROOT
BRANCH  83  84
ATOM     84  CB  VAL A  98      -5.203   2.807  15.281  1.00 17.87     0.009 C 
ATOM     85  CG2 VAL A  98      -5.207   3.098  16.759  1.00 29.90     0.012 C 
ATOM     86  CG1 VAL A  98      -6.400   1.964  14.896  1.00 14.79     0.012 C 
ENDBRANCH  83  84
END_RES VAL A  98
BEGIN_RES ASN A 112
REMARK  2 active torsions:
REMARK  status: ('A' for Active; 'I' for Inactive)
REMARK   28  A    between atoms: CA   and  CB  
REMARK   29  A    between atoms: CB   and  CG  
REMARK       I    between atoms: CG   and  ND2 
ROOT
ATOM     87  CA  ASN A 112     -11.790  -8.793  14.069  1.00 37.70     0.185 C 
ENDROOT
BRANCH  87  88
ATOM     88  CB  ASN A 112     -12.992  -7.945  14.465  1.00 26.24     0.137 C 
BRANCH  88  89
ATOM     89  CG  ASN A 112     -13.819  -8.567  15.568  1.00 21.77     0.217 C 
ATOM     90  ND2 ASN A 112     -14.970  -9.126  15.196  1.00  9.31    -0.370 N 
ATOM     91  H04 ASN A 112     -15.569  -9.556  15.886  1.00  9.31     0.159 HD
ATOM     92  H05 ASN A 112     -15.244  -9.118  14.224  1.00  9.31     0.159 HD
ATOM     93  OD1 ASN A 112     -13.433  -8.544  16.743  1.00 21.61    -0.274 OA
ENDBRANCH  88  89
ENDBRANCH  87  88
END_RES ASN A 112
BEGIN_RES PHE A 114
REMARK  2 active torsions:
REMARK  status: ('A' for Active; 'I' for Inactive)
REMARK   30  A    between atoms: CA   and  CB  
REMARK   31  A    between atoms: CB   and  CG  
ROOT
ATOM     94  CA  PHE A 114      -7.754  -3.619  17.012  1.00 26.06     0.180 C 
ENDROOT
BRANCH  94  95
ATOM     95  CB  PHE A 114      -8.890  -3.080  17.867  1.00 19.95     0.073 C 
BRANCH  95  96
ATOM     96  CG  PHE A 114      -9.127  -1.616  17.683  1.00 17.65    -0.056 A 
ATOM     97  CD1 PHE A 114      -8.059  -0.725  17.607  1.00 13.01     0.007 A 
ATOM     98  CE1 PHE A 114      -8.279   0.638  17.465  1.00  6.74     0.001 A 
ATOM     99  CZ  PHE A 114      -9.578   1.132  17.394  1.00  6.27     0.000 A 
ATOM    100  CE2 PHE A 114     -10.648   0.255  17.468  1.00 17.36     0.001 A 
ATOM    101  CD2 PHE A 114     -10.420  -1.118  17.612  1.00 18.39     0.007 A 
ENDBRANCH  95  96
ENDBRANCH  94  95
END_RES PHE A 114
BEGIN_RES VAL A 116
REMARK  1 active torsions:
REMARK  status: ('A' for Active; 'I' for Inactive)
REMARK   32  A    between atoms: CA   and  CB  
ROOT
ATOM    102  CA  VAL A 116      -2.467   0.283  18.565  1.00 13.48     0.180 C 
ENDROOT
BRANCH 102 103
ATOM    103  CB  VAL A 116      -3.101   1.238  19.599  1.00 20.86     0.009 C 
ATOM    104  CG1 VAL A 116      -2.711   2.681  19.269  1.00 25.01     0.012 C 
ATOM    105  CG2 VAL A 116      -4.601   1.063  19.645  1.00 25.34     0.012 C 
ENDBRANCH 102 103
END_RES VAL A 116
BEGIN_RES ILE A 123
REMARK  2 active torsions:
REMARK  status: ('A' for Active; 'I' for Inactive)
REMARK   33  A    between atoms: CA   and  CB  
REMARK   34  A    between atoms: CB   and  CG1 
ROOT
ATOM    106  CA  ILE A 123       1.557  -1.626  23.222  1.00 15.07     0.180 C 
ENDROOT
BRANCH 106 107
ATOM    107  CB  ILE A 123       1.697  -0.112  23.461  1.00 14.41     0.013 C 
ATOM    108  CG2 ILE A 123       3.111   0.212  23.909  1.00 18.35     0.012 C 
BRANCH 107 109
ATOM    109  CG1 ILE A 123       1.357   0.659  22.188  1.00 15.23     0.002 C 
ATOM    110  CD1 ILE A 123       0.232   1.651  22.363  1.00 14.67     0.005 C 
ENDBRANCH 107 109
ENDBRANCH 106 107
END_RES ILE A 123
BEGIN_RES LEU A 124
REMARK  2 active torsions:
REMARK  status: ('A' for Active; 'I' for Inactive)
REMARK   35  A    between atoms: CA   and  CB  
REMARK   36  A    between atoms: CB   and  CG  
ROOT
ATOM    111  CA  LEU A 124      -2.057  -2.686  23.524  1.00 11.86     0.177 C 
ENDROOT
BRANCH 111 112
ATOM    112  CB  LEU A 124      -2.698  -1.652  24.429  1.00 14.60     0.038 C 
BRANCH 112 113
ATOM    113  CG  LEU A 124      -2.601  -0.248  23.851  1.00 16.19    -0.020 C 
ATOM    114  CD1 LEU A 124      -3.989   0.179  23.336  1.00 22.07     0.009 C 
ATOM    115  CD2 LEU A 124      -2.079   0.695  24.906  1.00  9.12     0.009 C 
ENDBRANCH 112 113
ENDBRANCH 111 112
END_RES LEU A 124
BEGIN_RES PHE A 126
REMARK  2 active torsions:
REMARK  status: ('A' for Active; 'I' for Inactive)
REMARK   37  A    between atoms: CA   and  CB  
REMARK   38  A    between atoms: CB   and  CG  
ROOT
ATOM    116  CA  PHE A 126      -8.784  -4.792  22.233  1.00 23.15     0.180 C 
ENDROOT
BRANCH 116 117
ATOM    117  CB  PHE A 126      -9.823  -4.011  21.461  1.00 20.65     0.073 C 
BRANCH 117 118
ATOM    118  CG  PHE A 126     -10.954  -3.550  22.295  1.00 23.65    -0.056 A 
ATOM    119  CD2 PHE A 126     -10.778  -2.547  23.231  1.00 36.63     0.007 A 
ATOM    120  CE2 PHE A 126     -11.851  -2.110  24.020  1.00 36.27     0.001 A 
ATOM    121  CZ  PHE A 126     -13.103  -2.687  23.865  1.00 18.06     0.000 A 
ATOM    122  CE1 PHE A 126     -13.283  -3.687  22.931  1.00  5.50     0.001 A 
ATOM    123  CD1 PHE A 126     -12.210  -4.113  22.148  1.00 15.29     0.007 A 
ENDBRANCH 117 118
ENDBRANCH 116 117
END_RES PHE A 126
BEGIN_RES TRP A 131
REMARK  2 active torsions:
REMARK  status: ('A' for Active; 'I' for Inactive)
REMARK   39  A    between atoms: CA   and  CB  
REMARK   40  A    between atoms: CB   and  CG  
ROOT
ATOM    124  CA  TRP A 131      -8.096  -3.335  26.542  1.00 14.52     0.181 C 
ENDROOT
BRANCH 124 125
ATOM    125  CB  TRP A 131      -7.651  -1.877  26.607  1.00 13.06     0.075 C 
BRANCH 125 126
ATOM    126  CG  TRP A 131      -8.033  -1.056  25.395  1.00 16.97    -0.028 A 
ATOM    127  CD2 TRP A 131      -9.123  -0.136  25.299  1.00 11.34    -0.002 A 
ATOM    128  CE2 TRP A 131      -9.105   0.408  24.000  1.00  5.87     0.042 A 
ATOM    129  CE3 TRP A 131     -10.117   0.282  26.193  1.00  3.80     0.014 A 
ATOM    130  CZ2 TRP A 131     -10.041   1.350  23.571  1.00  1.35     0.030 A 
ATOM    131  NE1 TRP A 131      -8.053  -0.157  23.333  1.00 13.90    -0.365 N 
ATOM    132  CH2 TRP A 131     -11.004   1.742  24.468  1.00  1.00     0.002 A 
ATOM    133  CZ3 TRP A 131     -11.048   1.214  25.772  1.00  1.00     0.001 A 
ATOM    134  CD1 TRP A 131      -7.413  -1.035  24.176  1.00 17.22     0.096 A 
ATOM    135  H07 TRP A 131      -7.790   0.038  22.378  1.00 13.90     0.165 HD
ENDBRANCH 125 126
ENDBRANCH 124 125
END_RES TRP A 131
BEGIN_RES LEU A 148
REMARK  2 active torsions:
REMARK  status: ('A' for Active; 'I' for Inactive)
REMARK   41  A    between atoms: CA   and  CB  
REMARK   42  A    between atoms: CB   and  CG  
ROOT
ATOM    136  CA  LEU A 148      -9.018   3.259  29.295  1.00 16.99     0.177 C 
ENDROOT
BRANCH 136 137
ATOM    137  CB  LEU A 148      -8.166   2.574  28.236  1.00  6.39     0.038 C 
BRANCH 137 138
ATOM    138  CG  LEU A 148      -7.575   3.357  27.081  1.00  1.00    -0.020 C 
ATOM    139  CD2 LEU A 148      -8.666   3.978  26.260  1.00  1.00     0.009 C 
ATOM    140  CD1 LEU A 148      -6.746   2.406  26.237  1.00  2.71     0.009 C 
ENDBRANCH 137 138
ENDBRANCH 136 137
END_RES LEU A 148
BEGIN_RES THR A 154
REMARK  2 active torsions:
REMARK  status: ('A' for Active; 'I' for Inactive)
REMARK   43  A    between atoms: CA   and  CB  
REMARK   44  A    between atoms: CB   and  OG1 
ROOT
ATOM    141  CA  THR A 154     -15.990   3.959  24.426  1.00 20.45     0.205 C 
ENDROOT
BRANCH 141 142
ATOM    142  CB  THR A 154     -14.777   4.829  24.694  1.00 16.79     0.146 C 
ATOM    143  CG2 THR A 154     -13.663   4.487  23.723  1.00 20.24     0.042 C 
BRANCH 142 144
ATOM    144  OG1 THR A 154     -15.142   6.203  24.514  1.00 18.84    -0.393 OA
ATOM    145  H06 THR A 154     -14.398   6.765  24.741  1.00 18.84     0.210 HD
ENDBRANCH 142 144
ENDBRANCH 141 142
END_RES THR A 154
BEGIN_RES VAL A 158
REMARK  1 active torsions:
REMARK  status: ('A' for Active; 'I' for Inactive)
REMARK   45  A    between atoms: CA   and  CB  
ROOT
ATOM    146  CA  VAL A 158     -15.487  -0.189  19.892  1.00 15.49     0.180 C 
ENDROOT
BRANCH 146 147
ATOM    147  CB  VAL A 158     -14.291  -0.273  20.822  1.00  6.52     0.009 C 
ATOM    148  CG1 VAL A 158     -13.253  -1.229  20.281  1.00  1.00     0.012 C 
ATOM    149  CG2 VAL A 158     -13.713   1.099  20.985  1.00  5.99     0.012 C 
ENDBRANCH 146 147
END_RES VAL A 158
BEGIN_RES LEU A 161
REMARK  2 active torsions:
REMARK  status: ('A' for Active; 'I' for Inactive)
REMARK   46  A    between atoms: CA   and  CB  
REMARK   47  A    between atoms: CB   and  CG  
ROOT
ATOM    150  CA  LEU A 161     -18.031  -1.858  15.935  1.00 13.31     0.177 C 
ENDROOT
BRANCH 150 151
ATOM    151  CB  LEU A 161     -17.046  -0.706  16.001  1.00 14.13     0.038 C 
BRANCH 151 152
ATOM    152  CG  LEU A 161     -17.498   0.605  15.369  1.00 19.39    -0.020 C 
ATOM    153  CD2 LEU A 161     -16.841   1.773  16.065  1.00 27.75     0.009 C 
ATOM    154  CD1 LEU A 161     -18.994   0.711  15.485  1.00 18.59     0.009 C 
ENDBRANCH 151 152
ENDBRANCH 150 151
END_RES LEU A 161
BEGIN_RES GLN A 168
REMARK  3 active torsions:
REMARK  status: ('A' for Active; 'I' for Inactive)
REMARK   48  A    between atoms: CA   and  CB  
REMARK   49  A    between atoms: CB   and  CG  
REMARK   50  A    between atoms: CG   and  CD  
REMARK       I    between atoms: CD   and  NE2 
ROOT
ATOM    155  CA  GLN A 168     -22.035  -6.020   8.155  1.00 30.94     0.177 C 
ENDROOT
BRANCH 155 156
ATOM    156  CB  GLN A 168     -23.054  -5.218   8.946  1.00 41.76     0.044 C 
BRANCH 156 157
ATOM    157  CG  GLN A 168     -24.481  -5.427   8.518  1.00 61.20     0.105 C 
BRANCH 157 158
ATOM    158  CD  GLN A 168     -24.980  -4.295   7.640  1.00 75.49     0.215 C 
ATOM    159  NE2 GLN A 168     -24.802  -4.445   6.326  1.00 85.00    -0.370 N 
ATOM    160  H06 GLN A 168     -25.110  -3.724   5.690  1.00 85.00     0.159 HD
ATOM    161  H07 GLN A 168     -24.358  -5.279   5.969  1.00 85.00     0.159 HD
ATOM    162  OE1 GLN A 168     -25.514  -3.292   8.134  1.00 73.64    -0.274 OA
ENDBRANCH 157 158
ENDBRANCH 156 157
ENDBRANCH 155 156
END_RES GLN A 168
ENDMDL
MODEL 6
REMARK VINA RESULT:      -7.8      2.075      4.553
REMARK  Name = human_CD1d_tritonX_pred.rank_0
REMARK  32 active torsions:
REMARK  status: ('A' for Active; 'I' for Inactive)
REMARK    1  A    between atoms: O_2  and  C_21
REMARK    2  A    between atoms: O_2  and  C_23
REMARK    3  A    between atoms: C_3  and  C_5
REMARK    4  A    between atoms: C_3  and  C_15
REMARK    5  A    between atoms: O_4  and  C_24
REMARK    6  A    between atoms: O_4  and  C_25
REMARK    7  A    between atoms: O_6  and  C_26
REMARK    8  A    between atoms: O_6  and  C_27
REMARK    9  A    between atoms: O_8  and  C_28
REMARK   10  A    between atoms: O_8  and  C_29
REMARK   11  A    between atoms: O_10  and  C_30
REMARK   12  A    between atoms: O_10  and  C_31
REMARK   13  A    between atoms: O_12  and  C_32
REMARK   14  A    between atoms: O_12  and  C_33
REMARK   15  A    between atoms: O_14  and  C_34
REMARK   16  A    between atoms: O_14  and  C_35
REMARK   17  A    between atoms: O_16  and  C_36
REMARK   18  A    between atoms: O_16  and  C_37
REMARK   19  A    between atoms: O_18  and  C_38
REMARK   20  A    between atoms: O_18  and  C_39
REMARK   21  A    between atoms: O_20  and  C_40
REMARK   22  A    between atoms: O_20  and  C_41
REMARK   23  A    between atoms: C_23  and  C_24
REMARK   24  A    between atoms: C_25  and  C_26
REMARK   25  A    between atoms: C_27  and  C_28
REMARK   26  A    between atoms: C_29  and  C_30
REMARK   27  A    between atoms: C_31  and  C_32
REMARK   28  A    between atoms: C_33  and  C_34
REMARK   29  A    between atoms: C_35  and  C_36
REMARK   30  A    between atoms: C_37  and  C_38
REMARK   31  A    between atoms: C_39  and  C_40
REMARK   32  A    between atoms: C_41  and  C_42
REMARK                            x       y       z     vdW  Elec       q    Type
REMARK                         _______ _______ _______ _____ _____    ______ ____
ROOT
ATOM      1  O   UNL     1     -15.123   8.733  22.516  0.00  0.00    +0.000 OA
ENDROOT
BRANCH   1   2
ATOM      2  C   UNL     1     -13.736   8.686  22.157  0.00  0.00    +0.000 C 
BRANCH   2   3
ATOM      3  C   UNL     1     -12.881   8.844  23.407  0.00  0.00    +0.000 C 
BRANCH   3   4
ATOM      4  O   UNL     1     -12.352   7.617  23.861  0.00  0.00    +0.000 OA
BRANCH   4   5
ATOM      5  C   UNL     1     -11.305   7.032  23.104  0.00  0.00    +0.000 C 
BRANCH   5   6
ATOM      6  C   UNL     1     -10.373   6.198  23.976  0.00  0.00    +0.000 C 
BRANCH   6   7
ATOM      7  O   UNL     1      -9.999   5.011  23.285  0.00  0.00    +0.000 OA
BRANCH   7   8
ATOM      8  C   UNL     1      -9.113   5.202  22.166  0.00  0.00    +0.000 C 
BRANCH   8   9
ATOM      9  C   UNL     1      -7.681   4.854  22.573  0.00  0.00    +0.000 C 
BRANCH   9  10
ATOM     10  O   UNL     1      -6.957   6.024  22.982  0.00  0.00    +0.000 OA
BRANCH  10  14
ATOM     11  C   UNL     1      -2.925   5.650  23.754  0.00  0.00    +0.000 A 
ATOM     12  C   UNL     1      -3.710   4.574  23.294  0.00  0.00    +0.000 A 
ATOM     13  C   UNL     1      -5.042   4.703  23.047  0.00  0.00    +0.000 A 
ATOM     14  C   UNL     1      -5.609   5.941  23.209  0.00  0.00    +0.000 A 
ATOM     15  C   UNL     1      -4.892   7.016  23.639  0.00  0.00    +0.000 A 
ATOM     16  C   UNL     1      -3.566   6.902  23.903  0.00  0.00    +0.000 A 
BRANCH  11  18
ATOM     17  C   UNL     1      -0.788   4.777  22.931  0.00  0.00    +0.000 C 
ATOM     18  C   UNL     1      -1.453   5.532  24.061  0.00  0.00    +0.000 C 
ATOM     19  C   UNL     1      -0.918   6.932  24.096  0.00  0.00    +0.000 C 
BRANCH  18  20
ATOM     20  C   UNL     1      -1.144   4.860  25.418  0.00  0.00    +0.000 C 
ATOM     21  C   UNL     1      -0.505   5.861  26.365  0.00  0.00    +0.000 C 
ATOM     22  C   UNL     1      -0.184   3.735  25.263  0.00  0.00    +0.000 C 
ATOM     23  C   UNL     1      -2.410   4.372  26.075  0.00  0.00    +0.000 C 
ENDBRANCH  18  20
ENDBRANCH  11  18
ENDBRANCH  10  14
ENDBRANCH   9  10
ENDBRANCH   8   9
ENDBRANCH   7   8
ENDBRANCH   6   7
ENDBRANCH   5   6
ENDBRANCH   4   5
ENDBRANCH   3   4
ENDBRANCH   2   3
ENDBRANCH   1   2
BRANCH   1  24
ATOM     24  C   UNL     1     -15.860   9.709  21.745  0.00  0.00    +0.000 C 
BRANCH  24  25
ATOM     25  C   UNL     1     -15.383   9.748  20.310  0.00  0.00    +0.000 C 
BRANCH  25  26
ATOM     26  O   UNL     1     -16.428   9.332  19.421  0.00  0.00    +0.000 OA
BRANCH  26  27
ATOM     27  C   UNL     1     -16.270   7.993  18.971  0.00  0.00    +0.000 C 
BRANCH  27  28
ATOM     28  C   UNL     1     -17.301   7.065  19.594  0.00  0.00    +0.000 C 
BRANCH  28  29
ATOM     29  O   UNL     1     -16.696   6.162  20.516  0.00  0.00    +0.000 OA
BRANCH  29  30
ATOM     30  C   UNL     1     -15.336   5.933  20.323  0.00  0.00    +0.000 C 
BRANCH  30  31
ATOM     31  C   UNL     1     -14.993   4.476  20.518  0.00  0.00    +0.000 C 
BRANCH  31  32
ATOM     32  O   UNL     1     -15.376   3.683  19.412  0.00  0.00    +0.000 OA
BRANCH  32  33
ATOM     33  C   UNL     1     -15.010   4.198  18.132  0.00  0.00    +0.000 C 
BRANCH  33  34
ATOM     34  C   UNL     1     -14.613   3.075  17.208  0.00  0.00    +0.000 C 
BRANCH  34  35
ATOM     35  O   UNL     1     -15.027   3.316  15.884  0.00  0.00    +0.000 OA
BRANCH  35  36
ATOM     36  C   UNL     1     -14.016   3.655  14.993  0.00  0.00    +0.000 C 
BRANCH  36  37
ATOM     37  C   UNL     1     -13.844   2.568  13.956  0.00  0.00    +0.000 C 
BRANCH  37  38
ATOM     38  O   UNL     1     -12.502   2.556  13.422  0.00  0.00    +0.000 OA
BRANCH  38  39
ATOM     39  C   UNL     1     -11.495   2.802  14.407  0.00  0.00    +0.000 C 
BRANCH  39  40
ATOM     40  C   UNL     1     -10.332   3.586  13.844  0.00  0.00    +0.000 C 
BRANCH  40  41
ATOM     41  O   UNL     1      -9.223   3.635  14.731  0.00  0.00    +0.000 OA
BRANCH  41  42
ATOM     42  C   UNL     1      -8.804   4.958  15.069  0.00  0.00    +0.000 C 
BRANCH  42  44
ATOM     43  O   UNL     1      -9.227   7.280  14.716  0.00  0.00    +0.000 OA
ATOM     44  C   UNL     1      -9.543   5.994  14.244  0.00  0.00    +0.000 C 
ENDBRANCH  42  44
ENDBRANCH  41  42
ENDBRANCH  40  41
ENDBRANCH  39  40
ENDBRANCH  38  39
ENDBRANCH  37  38
ENDBRANCH  36  37
ENDBRANCH  35  36
ENDBRANCH  34  35
ENDBRANCH  33  34
ENDBRANCH  32  33
ENDBRANCH  31  32
ENDBRANCH  30  31
ENDBRANCH  29  30
ENDBRANCH  28  29
ENDBRANCH  27  28
ENDBRANCH  26  27
ENDBRANCH  25  26
ENDBRANCH  24  25
ENDBRANCH   1  24
TORSDOF 32
BEGIN_RES LEU A  10
REMARK  2 active torsions:
REMARK  status: ('A' for Active; 'I' for Inactive)
REMARK    1  A    between atoms: CA   and  CB  
REMARK    2  A    between atoms: CB   and  CG  
ROOT
ATOM      1  CA  LEU A  10     -10.775  -4.871   5.898  1.00 25.14     0.177 C 
ENDROOT
BRANCH   1   2
ATOM      2  CB  LEU A  10     -12.191  -4.387   6.226  1.00 17.87     0.038 C 
BRANCH   2   3
ATOM      3  CG  LEU A  10     -12.724  -3.305   5.285  1.00 24.95    -0.020 C 
ATOM      4  CD2 LEU A  10     -13.563  -2.351   6.066  1.00 26.38     0.009 C 
ATOM      5  CD1 LEU A  10     -13.526  -3.918   4.150  1.00 28.12     0.009 C 
ENDBRANCH   2   3
ENDBRANCH   1   2
END_RES LEU A  10
BEGIN_RES CYS A  12
REMARK  2 active torsions:
REMARK  status: ('A' for Active; 'I' for Inactive)
REMARK    3  A    between atoms: CA   and  CB  
REMARK    4  A    between atoms: CB   and  SG  
ROOT
ATOM      6  CA  CYS A  12      -8.555   0.470   8.750  1.00 23.16     0.185 C 
ENDROOT
BRANCH   6   7
ATOM      7  CB  CYS A  12      -9.828   0.763   9.555  1.00 20.43     0.105 C 
BRANCH   7   8
ATOM      8  SG  CYS A  12     -10.919   2.055   8.884  1.00 24.64    -0.180 SA
ATOM      9  H04 CYS A  12     -10.193   3.134   8.568  1.00 24.64     0.101 HD
ENDBRANCH   7   8
ENDBRANCH   6   7
END_RES CYS A  12
BEGIN_RES GLN A  14
REMARK  3 active torsions:
REMARK  status: ('A' for Active; 'I' for Inactive)
REMARK    5  A    between atoms: CA   and  CB  
REMARK    6  A    between atoms: CB   and  CG  
REMARK    7  A    between atoms: CG   and  CD  
REMARK       I    between atoms: CD   and  NE2 
ROOT
ATOM     10  CA  GLN A  14      -4.645   5.402  11.377  1.00 10.43     0.177 C 
ENDROOT
BRANCH  10  11
ATOM     11  CB  GLN A  14      -5.541   5.549  12.608  1.00 14.45     0.044 C 
BRANCH  11  12
ATOM     12  CG  GLN A  14      -6.485   6.728  12.547  1.00 13.74     0.105 C 
BRANCH  12  13
ATOM     13  CD  GLN A  14      -5.895   7.972  13.166  1.00 16.29     0.215 C 
ATOM     14  NE2 GLN A  14      -6.324   8.290  14.368  1.00  8.57    -0.370 N 
ATOM     15  H06 GLN A  14      -5.964   9.111  14.832  1.00  8.57     0.159 HD
ATOM     16  H07 GLN A  14      -7.015   7.712  14.826  1.00  8.57     0.159 HD
ATOM     17  OE1 GLN A  14      -5.061   8.637  12.571  1.00 23.55    -0.274 OA
ENDBRANCH  12  13
ENDBRANCH  11  12
ENDBRANCH  10  11
END_RES GLN A  14
BEGIN_RES SER A  16
REMARK  2 active torsions:
REMARK  status: ('A' for Active; 'I' for Inactive)
REMARK    8  A    between atoms: CA   and  CB  
REMARK    9  A    between atoms: CB   and  OG  
ROOT
ATOM     18  CA  SER A  16      -1.305  10.019  14.282  1.00  2.34     0.200 C 
ENDROOT
BRANCH  18  19
ATOM     19  CB  SER A  16      -2.242   9.935  15.479  1.00  3.12     0.199 C 
BRANCH  19  20
ATOM     20  OG  SER A  16      -3.456   9.305  15.111  1.00  1.00    -0.398 OA
ATOM     21  H04 SER A  16      -3.324   8.801  14.304  1.00  1.00     0.209 HD
ENDBRANCH  19  20
ENDBRANCH  18  19
END_RES SER A  16
BEGIN_RES LEU A  32
REMARK  2 active torsions:
REMARK  status: ('A' for Active; 'I' for Inactive)
REMARK   10  A    between atoms: CA   and  CB  
REMARK   11  A    between atoms: CB   and  CG  
ROOT
ATOM     22  CA  LEU A  32     -10.272  -4.106   1.587  1.00 16.16     0.177 C 
ENDROOT
BRANCH  22  23
ATOM     23  CB  LEU A  32     -11.613  -3.858   0.880  1.00 12.35     0.038 C 
BRANCH  23  24
ATOM     24  CG  LEU A  32     -12.589  -5.037   1.069  1.00  9.77    -0.020 C 
ATOM     25  CD1 LEU A  32     -14.001  -4.606   0.753  1.00  4.35     0.009 C 
ATOM     26  CD2 LEU A  32     -12.203  -6.199   0.192  1.00 10.60     0.009 C 
ENDBRANCH  23  24
ENDBRANCH  22  23
END_RES LEU A  32
BEGIN_RES HIS A  38
REMARK  2 active torsions:
REMARK  status: ('A' for Active; 'I' for Inactive)
REMARK   12  A    between atoms: CA   and  CB  
REMARK   13  A    between atoms: CB   and  CG  
ROOT
ATOM     27  CA  HIS A  38     -10.959   4.941   1.621  1.00 16.94     0.182 C 
ENDROOT
BRANCH  27  28
ATOM     28  CB  HIS A  38     -11.810   4.840   2.881  1.00 15.47     0.095 C 
BRANCH  28  29
ATOM     29  CG  HIS A  38     -12.984   3.926   2.745  1.00 18.62     0.053 A 
ATOM     30  CD2 HIS A  38     -14.152   4.073   2.074  1.00 15.06     0.116 A 
ATOM     31  NE2 HIS A  38     -14.868   2.917   2.255  1.00 18.12    -0.359 N 
ATOM     32  CE1 HIS A  38     -14.169   2.091   3.009  1.00 14.78     0.207 A 
ATOM     33  H06 HIS A  38     -15.784   2.729   1.873  1.00 18.12     0.166 HD
ATOM     34  ND1 HIS A  38     -13.028   2.675   3.320  1.00 16.58    -0.247 NA
ENDBRANCH  28  29
ENDBRANCH  27  28
END_RES HIS A  38
BEGIN_RES TRP A  63
REMARK  2 active torsions:
REMARK  status: ('A' for Active; 'I' for Inactive)
REMARK   14  A    between atoms: CA   and  CB  
REMARK   15  A    between atoms: CB   and  CG  
ROOT
ATOM     35  CA  TRP A  63     -22.437   6.257   6.543  1.00 27.04     0.181 C 
ENDROOT
BRANCH  35  36
ATOM     36  CB  TRP A  63     -22.360   6.642   5.068  1.00 31.37     0.075 C 
BRANCH  36  37
ATOM     37  CG  TRP A  63     -20.954   6.733   4.514  1.00 34.37    -0.028 A 
ATOM     38  CD2 TRP A  63     -19.905   5.764   4.646  1.00 33.79    -0.002 A 
ATOM     39  CE3 TRP A  63     -19.789   4.541   5.309  1.00 32.99     0.014 A 
ATOM     40  CE2 TRP A  63     -18.799   6.244   3.910  1.00 35.84     0.042 A 
ATOM     41  CZ3 TRP A  63     -18.592   3.844   5.220  1.00 32.93     0.001 A 
ATOM     42  CH2 TRP A  63     -17.510   4.348   4.481  1.00 39.24     0.002 A 
ATOM     43  CZ2 TRP A  63     -17.595   5.543   3.819  1.00 37.99     0.030 A 
ATOM     44  NE1 TRP A  63     -19.163   7.444   3.363  1.00 37.98    -0.365 N 
ATOM     45  H06 TRP A  63     -18.577   8.026   2.782  1.00 37.98     0.165 HD
ATOM     46  CD1 TRP A  63     -20.455   7.728   3.733  1.00 38.16     0.096 A 
ENDBRANCH  36  37
ENDBRANCH  35  36
END_RES TRP A  63
BEGIN_RES LEU A  66
REMARK  2 active torsions:
REMARK  status: ('A' for Active; 'I' for Inactive)
REMARK   16  A    between atoms: CA   and  CB  
REMARK   17  A    between atoms: CB   and  CG  
ROOT
ATOM     47  CA  LEU A  66     -20.004   6.489  11.120  1.00 10.90     0.177 C 
ENDROOT
BRANCH  47  48
ATOM     48  CB  LEU A  66     -19.626   5.453  10.069  1.00 13.57     0.038 C 
BRANCH  48  49
ATOM     49  CG  LEU A  66     -19.411   4.018  10.547  1.00  8.73    -0.020 C 
ATOM     50  CD1 LEU A  66     -19.325   3.966  12.050  1.00 14.23     0.009 C 
ATOM     51  CD2 LEU A  66     -20.565   3.176  10.066  1.00  1.92     0.009 C 
ENDBRANCH  48  49
ENDBRANCH  47  48
END_RES LEU A  66
BEGIN_RES PHE A  70
REMARK  2 active torsions:
REMARK  status: ('A' for Active; 'I' for Inactive)
REMARK   18  A    between atoms: CA   and  CB  
REMARK   19  A    between atoms: CB   and  CG  
ROOT
ATOM     52  CA  PHE A  70     -14.974   9.434  13.165  1.00  8.78     0.180 C 
ENDROOT
BRANCH  52  53
ATOM     53  CB  PHE A  70     -14.707   9.132  11.681  1.00  6.33     0.073 C 
BRANCH  53  54
ATOM     54  CG  PHE A  70     -13.966   7.842  11.457  1.00  3.42    -0.056 A 
ATOM     55  CD1 PHE A  70     -13.483   7.100  12.524  1.00 13.88     0.007 A 
ATOM     56  CE1 PHE A  70     -12.751   5.919  12.306  1.00 12.71     0.001 A 
ATOM     57  CZ  PHE A  70     -12.502   5.478  11.006  1.00  4.21     0.000 A 
ATOM     58  CE2 PHE A  70     -12.981   6.208   9.934  1.00  2.83     0.001 A 
ATOM     59  CD2 PHE A  70     -13.712   7.386  10.163  1.00  1.00     0.007 A 
ENDBRANCH  53  54
ENDBRANCH  52  53
END_RES PHE A  70
BEGIN_RES TYR A  73
REMARK  3 active torsions:
REMARK  status: ('A' for Active; 'I' for Inactive)
REMARK   20  A    between atoms: CA   and  CB  
REMARK   21  A    between atoms: CB   and  CG  
REMARK   22  A    between atoms: CZ   and  OH  
ROOT
ATOM     60  CA  TYR A  73     -13.212  10.166  17.260  1.00 12.17     0.180 C 
ENDROOT
BRANCH  60  61
ATOM     61  CB  TYR A  73     -13.301   8.846  16.517  1.00 12.84     0.073 C 
BRANCH  61  62
ATOM     62  CG  TYR A  73     -12.711   7.709  17.275  1.00 15.89    -0.056 A 
ATOM     63  CD1 TYR A  73     -12.548   7.774  18.641  1.00 16.00     0.010 A 
ATOM     64  CE1 TYR A  73     -11.967   6.722  19.350  1.00 13.55     0.037 A 
ATOM     65  CZ  TYR A  73     -11.549   5.596  18.668  1.00 18.13     0.065 A 
ATOM     66  CE2 TYR A  73     -11.702   5.506  17.305  1.00 15.89     0.037 A 
ATOM     67  CD2 TYR A  73     -12.283   6.563  16.615  1.00 21.86     0.010 A 
BRANCH  65  68
ATOM     68  OH  TYR A  73     -10.981   4.546  19.347  1.00 12.12    -0.361 OA
ATOM     69  H08 TYR A  73     -10.298   4.877  19.935  1.00 12.12     0.217 HD
ENDBRANCH  65  68
ENDBRANCH  61  62
ENDBRANCH  60  61
END_RES TYR A  73
BEGIN_RES PHE A  77
REMARK  2 active torsions:
REMARK  status: ('A' for Active; 'I' for Inactive)
REMARK   23  A    between atoms: CA   and  CB  
REMARK   24  A    between atoms: CB   and  CG  
ROOT
ATOM     70  CA  PHE A  77      -8.400  10.581  20.110  1.00 17.17     0.180 C 
ENDROOT
BRANCH  70  71
ATOM     71  CB  PHE A  77      -8.228   9.750  18.851  1.00 10.44     0.073 C 
BRANCH  71  72
ATOM     72  CG  PHE A  77      -7.060   8.815  18.900  1.00  6.07    -0.056 A 
ATOM     73  CD2 PHE A  77      -5.941   9.054  18.136  1.00  9.61     0.007 A 
ATOM     74  CE2 PHE A  77      -4.851   8.192  18.177  1.00  1.00     0.001 A 
ATOM     75  CZ  PHE A  77      -4.882   7.077  18.997  1.00  1.92     0.000 A 
ATOM     76  CE1 PHE A  77      -5.993   6.825  19.769  1.00  9.25     0.001 A 
ATOM     77  CD1 PHE A  77      -7.081   7.697  19.717  1.00  9.63     0.007 A 
ENDBRANCH  71  72
ENDBRANCH  70  71
END_RES PHE A  77
BEGIN_RES LEU A  96
REMARK  2 active torsions:
REMARK  status: ('A' for Active; 'I' for Inactive)
REMARK   25  A    between atoms: CA   and  CB  
REMARK   26  A    between atoms: CB   and  CG  
ROOT
ATOM     78  CA  LEU A  96       0.717   6.481  17.359  1.00 16.08     0.177 C 
ENDROOT
BRANCH  78  79
ATOM     79  CB  LEU A  96      -0.370   7.101  18.230  1.00 18.83     0.038 C 
BRANCH  79  80
ATOM     80  CG  LEU A  96      -0.179   6.888  19.732  1.00 19.03    -0.020 C 
ATOM     81  CD1 LEU A  96       0.648   8.026  20.284  1.00 28.17     0.009 C 
ATOM     82  CD2 LEU A  96      -1.515   6.881  20.438  1.00 22.01     0.009 C 
ENDBRANCH  79  80
ENDBRANCH  78  79
END_RES LEU A  96
BEGIN_RES VAL A  98
REMARK  1 active torsions:
REMARK  status: ('A' for Active; 'I' for Inactive)
REMARK   27  A    between atoms: CA   and  CB  
ROOT
ATOM     83  CA  VAL A  98      -3.928   2.082  14.897  1.00 19.83     0.180 C 
ENDROOT
BRANCH  83  84
ATOM     84  CB  VAL A  98      -5.203   2.807  15.281  1.00 17.87     0.009 C 
ATOM     85  CG2 VAL A  98      -4.929   4.279  15.452  1.00 29.90     0.012 C 
ATOM     86  CG1 VAL A  98      -5.759   2.212  16.558  1.00 14.79     0.012 C 
ENDBRANCH  83  84
END_RES VAL A  98
BEGIN_RES ASN A 112
REMARK  2 active torsions:
REMARK  status: ('A' for Active; 'I' for Inactive)
REMARK   28  A    between atoms: CA   and  CB  
REMARK   29  A    between atoms: CB   and  CG  
REMARK       I    between atoms: CG   and  ND2 
ROOT
ATOM     87  CA  ASN A 112     -11.790  -8.793  14.069  1.00 37.70     0.185 C 
ENDROOT
BRANCH  87  88
ATOM     88  CB  ASN A 112     -12.992  -7.945  14.465  1.00 26.24     0.137 C 
BRANCH  88  89
ATOM     89  CG  ASN A 112     -13.941  -8.662  15.399  1.00 21.77     0.217 C 
ATOM     90  ND2 ASN A 112     -13.640  -8.610  16.697  1.00  9.31    -0.370 N 
ATOM     91  H04 ASN A 112     -14.233  -9.071  17.372  1.00  9.31     0.159 HD
ATOM     92  H05 ASN A 112     -12.818  -8.110  17.005  1.00  9.31     0.159 HD
ATOM     93  OD1 ASN A 112     -14.931  -9.260  14.964  1.00 21.61    -0.274 OA
ENDBRANCH  88  89
ENDBRANCH  87  88
END_RES ASN A 112
BEGIN_RES PHE A 114
REMARK  2 active torsions:
REMARK  status: ('A' for Active; 'I' for Inactive)
REMARK   30  A    between atoms: CA   and  CB  
REMARK   31  A    between atoms: CB   and  CG  
ROOT
ATOM     94  CA  PHE A 114      -7.754  -3.619  17.012  1.00 26.06     0.180 C 
ENDROOT
BRANCH  94  95
ATOM     95  CB  PHE A 114      -8.890  -3.080  17.867  1.00 19.95     0.073 C 
BRANCH  95  96
ATOM     96  CG  PHE A 114      -9.202  -1.643  17.600  1.00 17.65    -0.056 A 
ATOM     97  CD1 PHE A 114      -8.183  -0.704  17.471  1.00 13.01     0.007 A 
ATOM     98  CE1 PHE A 114      -8.473   0.636  17.252  1.00  6.74     0.001 A 
ATOM     99  CZ  PHE A 114      -9.796   1.056  17.154  1.00  6.27     0.000 A 
ATOM    100  CE2 PHE A 114     -10.819   0.130  17.279  1.00 17.36     0.001 A 
ATOM    101  CD2 PHE A 114     -10.520  -1.218  17.501  1.00 18.39     0.007 A 
ENDBRANCH  95  96
ENDBRANCH  94  95
END_RES PHE A 114
BEGIN_RES VAL A 116
REMARK  1 active torsions:
REMARK  status: ('A' for Active; 'I' for Inactive)
REMARK   32  A    between atoms: CA   and  CB  
ROOT
ATOM    102  CA  VAL A 116      -2.467   0.283  18.565  1.00 13.48     0.180 C 
ENDROOT
BRANCH 102 103
ATOM    103  CB  VAL A 116      -3.101   1.238  19.599  1.00 20.86     0.009 C 
ATOM    104  CG1 VAL A 116      -2.956   2.684  19.116  1.00 25.01     0.012 C 
ATOM    105  CG2 VAL A 116      -4.546   0.877  19.850  1.00 25.34     0.012 C 
ENDBRANCH 102 103
END_RES VAL A 116
BEGIN_RES ILE A 123
REMARK  2 active torsions:
REMARK  status: ('A' for Active; 'I' for Inactive)
REMARK   33  A    between atoms: CA   and  CB  
REMARK   34  A    between atoms: CB   and  CG1 
ROOT
ATOM    106  CA  ILE A 123       1.557  -1.626  23.222  1.00 15.07     0.180 C 
ENDROOT
BRANCH 106 107
ATOM    107  CB  ILE A 123       1.697  -0.112  23.461  1.00 14.41     0.013 C 
ATOM    108  CG2 ILE A 123       3.080   0.200  24.007  1.00 18.35     0.012 C 
BRANCH 107 109
ATOM    109  CG1 ILE A 123       1.457   0.654  22.163  1.00 15.23     0.002 C 
ATOM    110  CD1 ILE A 123       0.159   1.425  22.145  1.00 14.67     0.005 C 
ENDBRANCH 107 109
ENDBRANCH 106 107
END_RES ILE A 123
BEGIN_RES LEU A 124
REMARK  2 active torsions:
REMARK  status: ('A' for Active; 'I' for Inactive)
REMARK   35  A    between atoms: CA   and  CB  
REMARK   36  A    between atoms: CB   and  CG  
ROOT
ATOM    111  CA  LEU A 124      -2.057  -2.686  23.524  1.00 11.86     0.177 C 
ENDROOT
BRANCH 111 112
ATOM    112  CB  LEU A 124      -2.698  -1.652  24.429  1.00 14.60     0.038 C 
BRANCH 112 113
ATOM    113  CG  LEU A 124      -2.633  -0.253  23.835  1.00 16.19    -0.020 C 
ATOM    114  CD1 LEU A 124      -4.048   0.174  23.400  1.00 22.07     0.009 C 
ATOM    115  CD2 LEU A 124      -2.045   0.697  24.848  1.00  9.12     0.009 C 
ENDBRANCH 112 113
ENDBRANCH 111 112
END_RES LEU A 124
BEGIN_RES PHE A 126
REMARK  2 active torsions:
REMARK  status: ('A' for Active; 'I' for Inactive)
REMARK   37  A    between atoms: CA   and  CB  
REMARK   38  A    between atoms: CB   and  CG  
ROOT
ATOM    116  CA  PHE A 126      -8.784  -4.792  22.233  1.00 23.15     0.180 C 
ENDROOT
BRANCH 116 117
ATOM    117  CB  PHE A 126      -9.823  -4.011  21.461  1.00 20.65     0.073 C 
BRANCH 117 118
ATOM    118  CG  PHE A 126     -10.948  -3.541  22.297  1.00 23.65    -0.056 A 
ATOM    119  CD2 PHE A 126     -12.208  -4.098  22.163  1.00 36.63     0.007 A 
ATOM    120  CE2 PHE A 126     -13.274  -3.653  22.957  1.00 36.27     0.001 A 
ATOM    121  CZ  PHE A 126     -13.069  -2.644  23.886  1.00 18.06     0.000 A 
ATOM    122  CE1 PHE A 126     -11.813  -2.087  24.024  1.00  5.50     0.001 A 
ATOM    123  CD1 PHE A 126     -10.758  -2.539  23.232  1.00 15.29     0.007 A 
ENDBRANCH 117 118
ENDBRANCH 116 117
END_RES PHE A 126
BEGIN_RES TRP A 131
REMARK  2 active torsions:
REMARK  status: ('A' for Active; 'I' for Inactive)
REMARK   39  A    between atoms: CA   and  CB  
REMARK   40  A    between atoms: CB   and  CG  
ROOT
ATOM    124  CA  TRP A 131      -8.096  -3.335  26.542  1.00 14.52     0.181 C 
ENDROOT
BRANCH 124 125
ATOM    125  CB  TRP A 131      -7.651  -1.877  26.607  1.00 13.06     0.075 C 
BRANCH 125 126
ATOM    126  CG  TRP A 131      -8.046  -1.053  25.402  1.00 16.97    -0.028 A 
ATOM    127  CD2 TRP A 131      -9.111  -0.101  25.332  1.00 11.34    -0.002 A 
ATOM    128  CE2 TRP A 131      -9.116   0.433  24.029  1.00  5.87     0.042 A 
ATOM    129  CE3 TRP A 131     -10.064   0.350  26.251  1.00  3.80     0.014 A 
ATOM    130  CZ2 TRP A 131     -10.037   1.400  23.621  1.00  1.35     0.030 A 
ATOM    131  NE1 TRP A 131      -8.101  -0.166  23.334  1.00 13.90    -0.365 N 
ATOM    132  CH2 TRP A 131     -10.960   1.826  24.544  1.00  1.00     0.002 A 
ATOM    133  CZ3 TRP A 131     -10.980   1.307  25.852  1.00  1.00     0.001 A 
ATOM    134  CD1 TRP A 131      -7.462  -1.057  24.164  1.00 17.22     0.096 A 
ATOM    135  H07 TRP A 131      -7.861   0.015  22.370  1.00 13.90     0.165 HD
ENDBRANCH 125 126
ENDBRANCH 124 125
END_RES TRP A 131
BEGIN_RES LEU A 148
REMARK  2 active torsions:
REMARK  status: ('A' for Active; 'I' for Inactive)
REMARK   41  A    between atoms: CA   and  CB  
REMARK   42  A    between atoms: CB   and  CG  
ROOT
ATOM    136  CA  LEU A 148      -9.018   3.259  29.295  1.00 16.99     0.177 C 
ENDROOT
BRANCH 136 137
ATOM    137  CB  LEU A 148      -8.166   2.574  28.236  1.00  6.39     0.038 C 
BRANCH 137 138
ATOM    138  CG  LEU A 148      -7.299   3.378  27.289  1.00  1.00    -0.020 C 
ATOM    139  CD2 LEU A 148      -8.073   3.745  26.057  1.00  1.00     0.009 C 
ATOM    140  CD1 LEU A 148      -6.086   2.541  26.928  1.00  2.71     0.009 C 
ENDBRANCH 137 138
ENDBRANCH 136 137
END_RES LEU A 148
BEGIN_RES THR A 154
REMARK  2 active torsions:
REMARK  status: ('A' for Active; 'I' for Inactive)
REMARK   43  A    between atoms: CA   and  CB  
REMARK   44  A    between atoms: CB   and  OG1 
ROOT
ATOM    141  CA  THR A 154     -15.990   3.959  24.426  1.00 20.45     0.205 C 
ENDROOT
BRANCH 141 142
ATOM    142  CB  THR A 154     -14.777   4.829  24.694  1.00 16.79     0.146 C 
ATOM    143  CG2 THR A 154     -13.577   4.304  23.930  1.00 20.24     0.042 C 
BRANCH 142 144
ATOM    144  OG1 THR A 154     -15.057   6.164  24.255  1.00 18.84    -0.393 OA
ATOM    145  H06 THR A 154     -15.510   6.135  23.409  1.00 18.84     0.210 HD
ENDBRANCH 142 144
ENDBRANCH 141 142
END_RES THR A 154
BEGIN_RES VAL A 158
REMARK  1 active torsions:
REMARK  status: ('A' for Active; 'I' for Inactive)
REMARK   45  A    between atoms: CA   and  CB  
ROOT
ATOM    146  CA  VAL A 158     -15.487  -0.189  19.892  1.00 15.49     0.180 C 
ENDROOT
BRANCH 146 147
ATOM    147  CB  VAL A 158     -14.291  -0.273  20.822  1.00  6.52     0.009 C 
ATOM    148  CG1 VAL A 158     -13.261  -1.242  20.289  1.00  1.00     0.012 C 
ATOM    149  CG2 VAL A 158     -13.703   1.096  20.972  1.00  5.99     0.012 C 
ENDBRANCH 146 147
END_RES VAL A 158
BEGIN_RES LEU A 161
REMARK  2 active torsions:
REMARK  status: ('A' for Active; 'I' for Inactive)
REMARK   46  A    between atoms: CA   and  CB  
REMARK   47  A    between atoms: CB   and  CG  
ROOT
ATOM    150  CA  LEU A 161     -18.031  -1.858  15.935  1.00 13.31     0.177 C 
ENDROOT
BRANCH 150 151
ATOM    151  CB  LEU A 161     -17.046  -0.706  16.001  1.00 14.13     0.038 C 
BRANCH 151 152
ATOM    152  CG  LEU A 161     -17.433   0.557  15.241  1.00 19.39    -0.020 C 
ATOM    153  CD2 LEU A 161     -18.869   0.922  15.531  1.00 27.75     0.009 C 
ATOM    154  CD1 LEU A 161     -17.250   0.313  13.768  1.00 18.59     0.009 C 
ENDBRANCH 151 152
ENDBRANCH 150 151
END_RES LEU A 161
BEGIN_RES GLN A 168
REMARK  3 active torsions:
REMARK  status: ('A' for Active; 'I' for Inactive)
REMARK   48  A    between atoms: CA   and  CB  
REMARK   49  A    between atoms: CB   and  CG  
REMARK   50  A    between atoms: CG   and  CD  
REMARK       I    between atoms: CD   and  NE2 
ROOT
ATOM    155  CA  GLN A 168     -22.035  -6.020   8.155  1.00 30.94     0.177 C 
ENDROOT
BRANCH 155 156
ATOM    156  CB  GLN A 168     -23.054  -5.218   8.946  1.00 41.76     0.044 C 
BRANCH 156 157
ATOM    157  CG  GLN A 168     -24.481  -5.425   8.516  1.00 61.20     0.105 C 
BRANCH 157 158
ATOM    158  CD  GLN A 168     -25.011  -4.243   7.728  1.00 75.49     0.215 C 
ATOM    159  NE2 GLN A 168     -25.452  -3.207   8.444  1.00 85.00    -0.370 N 
ATOM    160  H06 GLN A 168     -25.820  -2.391   7.977  1.00 85.00     0.159 HD
ATOM    161  H07 GLN A 168     -25.418  -3.240   9.453  1.00 85.00     0.159 HD
ATOM    162  OE1 GLN A 168     -25.033  -4.259   6.489  1.00 73.64    -0.274 OA
ENDBRANCH 157 158
ENDBRANCH 156 157
ENDBRANCH 155 156
END_RES GLN A 168
ENDMDL
MODEL 7
REMARK VINA RESULT:      -7.7      1.834      3.113
REMARK  Name = human_CD1d_tritonX_pred.rank_0
REMARK  32 active torsions:
REMARK  status: ('A' for Active; 'I' for Inactive)
REMARK    1  A    between atoms: O_2  and  C_21
REMARK    2  A    between atoms: O_2  and  C_23
REMARK    3  A    between atoms: C_3  and  C_5
REMARK    4  A    between atoms: C_3  and  C_15
REMARK    5  A    between atoms: O_4  and  C_24
REMARK    6  A    between atoms: O_4  and  C_25
REMARK    7  A    between atoms: O_6  and  C_26
REMARK    8  A    between atoms: O_6  and  C_27
REMARK    9  A    between atoms: O_8  and  C_28
REMARK   10  A    between atoms: O_8  and  C_29
REMARK   11  A    between atoms: O_10  and  C_30
REMARK   12  A    between atoms: O_10  and  C_31
REMARK   13  A    between atoms: O_12  and  C_32
REMARK   14  A    between atoms: O_12  and  C_33
REMARK   15  A    between atoms: O_14  and  C_34
REMARK   16  A    between atoms: O_14  and  C_35
REMARK   17  A    between atoms: O_16  and  C_36
REMARK   18  A    between atoms: O_16  and  C_37
REMARK   19  A    between atoms: O_18  and  C_38
REMARK   20  A    between atoms: O_18  and  C_39
REMARK   21  A    between atoms: O_20  and  C_40
REMARK   22  A    between atoms: O_20  and  C_41
REMARK   23  A    between atoms: C_23  and  C_24
REMARK   24  A    between atoms: C_25  and  C_26
REMARK   25  A    between atoms: C_27  and  C_28
REMARK   26  A    between atoms: C_29  and  C_30
REMARK   27  A    between atoms: C_31  and  C_32
REMARK   28  A    between atoms: C_33  and  C_34
REMARK   29  A    between atoms: C_35  and  C_36
REMARK   30  A    between atoms: C_37  and  C_38
REMARK   31  A    between atoms: C_39  and  C_40
REMARK   32  A    between atoms: C_41  and  C_42
REMARK                            x       y       z     vdW  Elec       q    Type
REMARK                         _______ _______ _______ _____ _____    ______ ____
ROOT
ATOM      1  O   UNL     1     -11.848   8.379  21.004  0.00  0.00    +0.000 OA
ENDROOT
BRANCH   1   2
ATOM      2  C   UNL     1     -12.478   7.461  21.908  0.00  0.00    +0.000 C 
BRANCH   2   3
ATOM      3  C   UNL     1     -12.131   7.840  23.342  0.00  0.00    +0.000 C 
BRANCH   3   4
ATOM      4  O   UNL     1     -11.327   6.869  23.977  0.00  0.00    +0.000 OA
BRANCH   4   5
ATOM      5  C   UNL     1     -10.039   6.624  23.437  0.00  0.00    +0.000 C 
BRANCH   5   6
ATOM      6  C   UNL     1      -9.816   5.143  23.151  0.00  0.00    +0.000 C 
BRANCH   6   7
ATOM      7  O   UNL     1      -8.548   4.957  22.531  0.00  0.00    +0.000 OA
BRANCH   7   8
ATOM      8  C   UNL     1      -8.299   3.634  22.020  0.00  0.00    +0.000 C 
BRANCH   8   9
ATOM      9  C   UNL     1      -6.833   3.262  22.236  0.00  0.00    +0.000 C 
BRANCH   9  10
ATOM     10  O   UNL     1      -5.958   4.207  21.601  0.00  0.00    +0.000 OA
BRANCH  10  14
ATOM     11  C   UNL     1      -2.469   5.201  23.559  0.00  0.00    +0.000 A 
ATOM     12  C   UNL     1      -2.629   3.982  22.871  0.00  0.00    +0.000 A 
ATOM     13  C   UNL     1      -3.786   3.658  22.232  0.00  0.00    +0.000 A 
ATOM     14  C   UNL     1      -4.798   4.582  22.226  0.00  0.00    +0.000 A 
ATOM     15  C   UNL     1      -4.690   5.780  22.865  0.00  0.00    +0.000 A 
ATOM     16  C   UNL     1      -3.548   6.114  23.519  0.00  0.00    +0.000 A 
BRANCH  11  18
ATOM     17  C   UNL     1      -0.024   5.263  23.413  0.00  0.00    +0.000 C 
ATOM     18  C   UNL     1      -1.209   5.579  24.298  0.00  0.00    +0.000 C 
ATOM     19  C   UNL     1      -1.277   7.060  24.516  0.00  0.00    +0.000 C 
BRANCH  18  20
ATOM     20  C   UNL     1      -1.056   4.892  25.674  0.00  0.00    +0.000 C 
ATOM     21  C   UNL     1      -0.183   3.655  25.548  0.00  0.00    +0.000 C 
ATOM     22  C   UNL     1      -2.369   4.443  26.209  0.00  0.00    +0.000 C 
ATOM     23  C   UNL     1      -0.383   5.811  26.661  0.00  0.00    +0.000 C 
ENDBRANCH  18  20
ENDBRANCH  11  18
ENDBRANCH  10  14
ENDBRANCH   9  10
ENDBRANCH   8   9
ENDBRANCH   7   8
ENDBRANCH   6   7
ENDBRANCH   5   6
ENDBRANCH   4   5
ENDBRANCH   3   4
ENDBRANCH   2   3
ENDBRANCH   1   2
BRANCH   1  24
ATOM     24  C   UNL     1     -11.083   7.705  19.978  0.00  0.00    +0.000 C 
BRANCH  24  25
ATOM     25  C   UNL     1     -11.343   6.216  19.990  0.00  0.00    +0.000 C 
BRANCH  25  26
ATOM     26  O   UNL     1     -10.844   5.608  18.792  0.00  0.00    +0.000 OA
BRANCH  26  27
ATOM     27  C   UNL     1      -9.426   5.645  18.703  0.00  0.00    +0.000 C 
BRANCH  27  28
ATOM     28  C   UNL     1      -8.960   6.163  17.351  0.00  0.00    +0.000 C 
BRANCH  28  29
ATOM     29  O   UNL     1     -10.046   6.260  16.432  0.00  0.00    +0.000 OA
BRANCH  29  30
ATOM     30  C   UNL     1      -9.866   5.592  15.223  0.00  0.00    +0.000 C 
BRANCH  30  31
ATOM     31  C   UNL     1      -8.547   4.858  15.193  0.00  0.00    +0.000 C 
BRANCH  31  32
ATOM     32  O   UNL     1      -8.431   4.010  14.068  0.00  0.00    +0.000 OA
BRANCH  32  33
ATOM     33  C   UNL     1      -9.312   4.306  12.984  0.00  0.00    +0.000 C 
BRANCH  33  34
ATOM     34  C   UNL     1      -9.950   3.042  12.466  0.00  0.00    +0.000 C 
BRANCH  34  35
ATOM     35  O   UNL     1     -10.850   2.491  13.396  0.00  0.00    +0.000 OA
BRANCH  35  36
ATOM     36  C   UNL     1     -11.871   1.718  12.855  0.00  0.00    +0.000 C 
BRANCH  36  37
ATOM     37  C   UNL     1     -12.801   1.238  13.947  0.00  0.00    +0.000 C 
BRANCH  37  38
ATOM     38  O   UNL     1     -13.860   0.414  13.414  0.00  0.00    +0.000 OA
BRANCH  38  39
ATOM     39  C   UNL     1     -13.713   0.130  12.021  0.00  0.00    +0.000 C 
BRANCH  39  40
ATOM     40  C   UNL     1     -14.598  -1.013  11.579  0.00  0.00    +0.000 C 
BRANCH  40  41
ATOM     41  O   UNL     1     -15.871  -0.997  12.209  0.00  0.00    +0.000 OA
BRANCH  41  42
ATOM     42  C   UNL     1     -16.859  -0.236  11.512  0.00  0.00    +0.000 C 
BRANCH  42  44
ATOM     43  O   UNL     1     -17.617   0.407   9.343  0.00  0.00    +0.000 OA
ATOM     44  C   UNL     1     -16.836  -0.542  10.027  0.00  0.00    +0.000 C 
ENDBRANCH  42  44
ENDBRANCH  41  42
ENDBRANCH  40  41
ENDBRANCH  39  40
ENDBRANCH  38  39
ENDBRANCH  37  38
ENDBRANCH  36  37
ENDBRANCH  35  36
ENDBRANCH  34  35
ENDBRANCH  33  34
ENDBRANCH  32  33
ENDBRANCH  31  32
ENDBRANCH  30  31
ENDBRANCH  29  30
ENDBRANCH  28  29
ENDBRANCH  27  28
ENDBRANCH  26  27
ENDBRANCH  25  26
ENDBRANCH  24  25
ENDBRANCH   1  24
TORSDOF 32
BEGIN_RES LEU A  10
REMARK  2 active torsions:
REMARK  status: ('A' for Active; 'I' for Inactive)
REMARK    1  A    between atoms: CA   and  CB  
REMARK    2  A    between atoms: CB   and  CG  
ROOT
ATOM      1  CA  LEU A  10     -10.775  -4.871   5.898  1.00 25.14     0.177 C 
ENDROOT
BRANCH   1   2
ATOM      2  CB  LEU A  10     -12.191  -4.387   6.226  1.00 17.87     0.038 C 
BRANCH   2   3
ATOM      3  CG  LEU A  10     -12.343  -2.865   6.282  1.00 24.95    -0.020 C 
ATOM      4  CD2 LEU A  10     -12.952  -2.485   7.589  1.00 26.38     0.009 C 
ATOM      5  CD1 LEU A  10     -13.193  -2.361   5.129  1.00 28.12     0.009 C 
ENDBRANCH   2   3
ENDBRANCH   1   2
END_RES LEU A  10
BEGIN_RES CYS A  12
REMARK  2 active torsions:
REMARK  status: ('A' for Active; 'I' for Inactive)
REMARK    3  A    between atoms: CA   and  CB  
REMARK    4  A    between atoms: CB   and  SG  
ROOT
ATOM      6  CA  CYS A  12      -8.555   0.470   8.750  1.00 23.16     0.185 C 
ENDROOT
BRANCH   6   7
ATOM      7  CB  CYS A  12      -9.828   0.763   9.555  1.00 20.43     0.105 C 
BRANCH   7   8
ATOM      8  SG  CYS A  12     -10.951   2.008   8.850  1.00 24.64    -0.180 SA
ATOM      9  H04 CYS A  12     -11.640   1.467   7.837  1.00 24.64     0.101 HD
ENDBRANCH   7   8
ENDBRANCH   6   7
END_RES CYS A  12
BEGIN_RES GLN A  14
REMARK  3 active torsions:
REMARK  status: ('A' for Active; 'I' for Inactive)
REMARK    5  A    between atoms: CA   and  CB  
REMARK    6  A    between atoms: CB   and  CG  
REMARK    7  A    between atoms: CG   and  CD  
REMARK       I    between atoms: CD   and  NE2 
ROOT
ATOM     10  CA  GLN A  14      -4.645   5.402  11.377  1.00 10.43     0.177 C 
ENDROOT
BRANCH  10  11
ATOM     11  CB  GLN A  14      -5.541   5.549  12.608  1.00 14.45     0.044 C 
BRANCH  11  12
ATOM     12  CG  GLN A  14      -6.462   6.746  12.561  1.00 13.74     0.105 C 
BRANCH  12  13
ATOM     13  CD  GLN A  14      -5.731   8.046  12.801  1.00 16.29     0.215 C 
ATOM     14  NE2 GLN A  14      -4.993   8.112  13.887  1.00  8.57    -0.370 N 
ATOM     15  H06 GLN A  14      -4.480   8.956  14.099  1.00  8.57     0.159 HD
ATOM     16  H07 GLN A  14      -4.938   7.318  14.510  1.00  8.57     0.159 HD
ATOM     17  OE1 GLN A  14      -5.828   8.977  12.017  1.00 23.55    -0.274 OA
ENDBRANCH  12  13
ENDBRANCH  11  12
ENDBRANCH  10  11
END_RES GLN A  14
BEGIN_RES SER A  16
REMARK  2 active torsions:
REMARK  status: ('A' for Active; 'I' for Inactive)
REMARK    8  A    between atoms: CA   and  CB  
REMARK    9  A    between atoms: CB   and  OG  
ROOT
ATOM     18  CA  SER A  16      -1.305  10.019  14.282  1.00  2.34     0.200 C 
ENDROOT
BRANCH  18  19
ATOM     19  CB  SER A  16      -2.242   9.935  15.479  1.00  3.12     0.199 C 
BRANCH  19  20
ATOM     20  OG  SER A  16      -1.963   8.774  16.242  1.00  1.00    -0.398 OA
ATOM     21  H04 SER A  16      -2.325   8.877  17.125  1.00  1.00     0.209 HD
ENDBRANCH  19  20
ENDBRANCH  18  19
END_RES SER A  16
BEGIN_RES LEU A  32
REMARK  2 active torsions:
REMARK  status: ('A' for Active; 'I' for Inactive)
REMARK   10  A    between atoms: CA   and  CB  
REMARK   11  A    between atoms: CB   and  CG  
ROOT
ATOM     22  CA  LEU A  32     -10.272  -4.106   1.587  1.00 16.16     0.177 C 
ENDROOT
BRANCH  22  23
ATOM     23  CB  LEU A  32     -11.613  -3.858   0.880  1.00 12.35     0.038 C 
BRANCH  23  24
ATOM     24  CG  LEU A  32     -12.624  -4.990   1.153  1.00  9.77    -0.020 C 
ATOM     25  CD1 LEU A  32     -13.040  -4.984   2.605  1.00  4.35     0.009 C 
ATOM     26  CD2 LEU A  32     -13.840  -4.847   0.276  1.00 10.60     0.009 C 
ENDBRANCH  23  24
ENDBRANCH  22  23
END_RES LEU A  32
BEGIN_RES HIS A  38
REMARK  2 active torsions:
REMARK  status: ('A' for Active; 'I' for Inactive)
REMARK   12  A    between atoms: CA   and  CB  
REMARK   13  A    between atoms: CB   and  CG  
ROOT
ATOM     27  CA  HIS A  38     -10.959   4.941   1.621  1.00 16.94     0.182 C 
ENDROOT
BRANCH  27  28
ATOM     28  CB  HIS A  38     -11.810   4.840   2.881  1.00 15.47     0.095 C 
BRANCH  28  29
ATOM     29  CG  HIS A  38     -12.991   3.934   2.741  1.00 18.62     0.053 A 
ATOM     30  CD2 HIS A  38     -14.106   4.040   1.980  1.00 15.06     0.116 A 
ATOM     31  NE2 HIS A  38     -14.856   2.915   2.208  1.00 18.12    -0.359 N 
ATOM     32  CE1 HIS A  38     -14.228   2.147   3.078  1.00 14.78     0.207 A 
ATOM     33  H06 HIS A  38     -15.747   2.708   1.780  1.00 18.12     0.166 HD
ATOM     34  ND1 HIS A  38     -13.100   2.739   3.417  1.00 16.58    -0.247 NA
ENDBRANCH  28  29
ENDBRANCH  27  28
END_RES HIS A  38
BEGIN_RES TRP A  63
REMARK  2 active torsions:
REMARK  status: ('A' for Active; 'I' for Inactive)
REMARK   14  A    between atoms: CA   and  CB  
REMARK   15  A    between atoms: CB   and  CG  
ROOT
ATOM     35  CA  TRP A  63     -22.437   6.257   6.543  1.00 27.04     0.181 C 
ENDROOT
BRANCH  35  36
ATOM     36  CB  TRP A  63     -22.360   6.642   5.068  1.00 31.37     0.075 C 
BRANCH  36  37
ATOM     37  CG  TRP A  63     -20.953   6.790   4.529  1.00 34.37    -0.028 A 
ATOM     38  CD2 TRP A  63     -19.885   5.837   4.619  1.00 33.79    -0.002 A 
ATOM     39  CE3 TRP A  63     -19.747   4.584   5.220  1.00 32.99     0.014 A 
ATOM     40  CE2 TRP A  63     -18.785   6.376   3.915  1.00 35.84     0.042 A 
ATOM     41  CZ3 TRP A  63     -18.536   3.918   5.105  1.00 32.93     0.001 A 
ATOM     42  CH2 TRP A  63     -17.460   4.480   4.399  1.00 39.24     0.002 A 
ATOM     43  CZ2 TRP A  63     -17.566   5.706   3.798  1.00 37.99     0.030 A 
ATOM     44  NE1 TRP A  63     -19.171   7.594   3.427  1.00 37.98    -0.365 N 
ATOM     45  H06 TRP A  63     -18.593   8.216   2.879  1.00 37.98     0.165 HD
ATOM     46  CD1 TRP A  63     -20.470   7.833   3.802  1.00 38.16     0.096 A 
ENDBRANCH  36  37
ENDBRANCH  35  36
END_RES TRP A  63
BEGIN_RES LEU A  66
REMARK  2 active torsions:
REMARK  status: ('A' for Active; 'I' for Inactive)
REMARK   16  A    between atoms: CA   and  CB  
REMARK   17  A    between atoms: CB   and  CG  
ROOT
ATOM     47  CA  LEU A  66     -20.004   6.489  11.120  1.00 10.90     0.177 C 
ENDROOT
BRANCH  47  48
ATOM     48  CB  LEU A  66     -19.626   5.453  10.069  1.00 13.57     0.038 C 
BRANCH  48  49
ATOM     49  CG  LEU A  66     -19.212   4.069  10.568  1.00  8.73    -0.020 C 
ATOM     50  CD1 LEU A  66     -20.097   3.004   9.975  1.00 14.23     0.009 C 
ATOM     51  CD2 LEU A  66     -17.777   3.829  10.173  1.00  1.92     0.009 C 
ENDBRANCH  48  49
ENDBRANCH  47  48
END_RES LEU A  66
BEGIN_RES PHE A  70
REMARK  2 active torsions:
REMARK  status: ('A' for Active; 'I' for Inactive)
REMARK   18  A    between atoms: CA   and  CB  
REMARK   19  A    between atoms: CB   and  CG  
ROOT
ATOM     52  CA  PHE A  70     -14.974   9.434  13.165  1.00  8.78     0.180 C 
ENDROOT
BRANCH  52  53
ATOM     53  CB  PHE A  70     -14.707   9.132  11.681  1.00  6.33     0.073 C 
BRANCH  53  54
ATOM     54  CG  PHE A  70     -13.976   7.836  11.456  1.00  3.42    -0.056 A 
ATOM     55  CD1 PHE A  70     -13.486   7.097  12.522  1.00 13.88     0.007 A 
ATOM     56  CE1 PHE A  70     -12.762   5.912  12.303  1.00 12.71     0.001 A 
ATOM     57  CZ  PHE A  70     -12.530   5.462  11.003  1.00  4.21     0.000 A 
ATOM     58  CE2 PHE A  70     -13.016   6.189   9.932  1.00  2.83     0.001 A 
ATOM     59  CD2 PHE A  70     -13.737   7.373  10.162  1.00  1.00     0.007 A 
ENDBRANCH  53  54
ENDBRANCH  52  53
END_RES PHE A  70
BEGIN_RES TYR A  73
REMARK  3 active torsions:
REMARK  status: ('A' for Active; 'I' for Inactive)
REMARK   20  A    between atoms: CA   and  CB  
REMARK   21  A    between atoms: CB   and  CG  
REMARK   22  A    between atoms: CZ   and  OH  
ROOT
ATOM     60  CA  TYR A  73     -13.212  10.166  17.260  1.00 12.17     0.180 C 
ENDROOT
BRANCH  60  61
ATOM     61  CB  TYR A  73     -13.301   8.846  16.517  1.00 12.84     0.073 C 
BRANCH  61  62
ATOM     62  CG  TYR A  73     -13.811   7.733  17.364  1.00 15.89    -0.056 A 
ATOM     63  CD1 TYR A  73     -13.701   6.422  16.956  1.00 16.00     0.010 A 
ATOM     64  CE1 TYR A  73     -14.206   5.380  17.734  1.00 13.55     0.037 A 
ATOM     65  CZ  TYR A  73     -14.826   5.669  18.933  1.00 18.13     0.065 A 
ATOM     66  CE2 TYR A  73     -14.947   6.969  19.363  1.00 15.89     0.037 A 
ATOM     67  CD2 TYR A  73     -14.438   7.995  18.576  1.00 21.86     0.010 A 
BRANCH  65  68
ATOM     68  OH  TYR A  73     -15.325   4.658  19.717  1.00 12.12    -0.361 OA
ATOM     69  H08 TYR A  73     -15.844   5.033  20.433  1.00 12.12     0.217 HD
ENDBRANCH  65  68
ENDBRANCH  61  62
ENDBRANCH  60  61
END_RES TYR A  73
BEGIN_RES PHE A  77
REMARK  2 active torsions:
REMARK  status: ('A' for Active; 'I' for Inactive)
REMARK   23  A    between atoms: CA   and  CB  
REMARK   24  A    between atoms: CB   and  CG  
ROOT
ATOM     70  CA  PHE A  77      -8.400  10.581  20.110  1.00 17.17     0.180 C 
ENDROOT
BRANCH  70  71
ATOM     71  CB  PHE A  77      -8.228   9.750  18.851  1.00 10.44     0.073 C 
BRANCH  71  72
ATOM     72  CG  PHE A  77      -6.986   8.914  18.845  1.00  6.07    -0.056 A 
ATOM     73  CD2 PHE A  77      -6.027   9.095  17.875  1.00  9.61     0.007 A 
ATOM     74  CE2 PHE A  77      -4.870   8.324  17.863  1.00  1.00     0.001 A 
ATOM     75  CZ  PHE A  77      -4.670   7.362  18.838  1.00  1.92     0.000 A 
ATOM     76  CE1 PHE A  77      -5.619   7.170  19.816  1.00  9.25     0.001 A 
ATOM     77  CD1 PHE A  77      -6.777   7.948  19.815  1.00  9.63     0.007 A 
ENDBRANCH  71  72
ENDBRANCH  70  71
END_RES PHE A  77
BEGIN_RES LEU A  96
REMARK  2 active torsions:
REMARK  status: ('A' for Active; 'I' for Inactive)
REMARK   25  A    between atoms: CA   and  CB  
REMARK   26  A    between atoms: CB   and  CG  
ROOT
ATOM     78  CA  LEU A  96       0.717   6.481  17.359  1.00 16.08     0.177 C 
ENDROOT
BRANCH  78  79
ATOM     79  CB  LEU A  96      -0.370   7.101  18.230  1.00 18.83     0.038 C 
BRANCH  79  80
ATOM     80  CG  LEU A  96      -0.196   6.861  19.729  1.00 19.03    -0.020 C 
ATOM     81  CD1 LEU A  96       0.528   8.042  20.332  1.00 28.17     0.009 C 
ATOM     82  CD2 LEU A  96      -1.543   6.730  20.402  1.00 22.01     0.009 C 
ENDBRANCH  79  80
ENDBRANCH  78  79
END_RES LEU A  96
BEGIN_RES VAL A  98
REMARK  1 active torsions:
REMARK  status: ('A' for Active; 'I' for Inactive)
REMARK   27  A    between atoms: CA   and  CB  
ROOT
ATOM     83  CA  VAL A  98      -3.928   2.082  14.897  1.00 19.83     0.180 C 
ENDROOT
BRANCH  83  84
ATOM     84  CB  VAL A  98      -5.203   2.807  15.281  1.00 17.87     0.009 C 
ATOM     85  CG2 VAL A  98      -4.914   4.265  15.530  1.00 29.90     0.012 C 
ATOM     86  CG1 VAL A  98      -5.802   2.160  16.512  1.00 14.79     0.012 C 
ENDBRANCH  83  84
END_RES VAL A  98
BEGIN_RES ASN A 112
REMARK  2 active torsions:
REMARK  status: ('A' for Active; 'I' for Inactive)
REMARK   28  A    between atoms: CA   and  CB  
REMARK   29  A    between atoms: CB   and  CG  
REMARK       I    between atoms: CG   and  ND2 
ROOT
ATOM     87  CA  ASN A 112     -11.790  -8.793  14.069  1.00 37.70     0.185 C 
ENDROOT
BRANCH  87  88
ATOM     88  CB  ASN A 112     -12.992  -7.945  14.465  1.00 26.24     0.137 C 
BRANCH  88  89
ATOM     89  CG  ASN A 112     -13.823  -8.571  15.562  1.00 21.77     0.217 C 
ATOM     90  ND2 ASN A 112     -14.978  -9.120  15.184  1.00  9.31    -0.370 N 
ATOM     91  H04 ASN A 112     -15.580  -9.553  15.871  1.00  9.31     0.159 HD
ATOM     92  H05 ASN A 112     -15.251  -9.103  14.212  1.00  9.31     0.159 HD
ATOM     93  OD1 ASN A 112     -13.439  -8.560  16.737  1.00 21.61    -0.274 OA
ENDBRANCH  88  89
ENDBRANCH  87  88
END_RES ASN A 112
BEGIN_RES PHE A 114
REMARK  2 active torsions:
REMARK  status: ('A' for Active; 'I' for Inactive)
REMARK   30  A    between atoms: CA   and  CB  
REMARK   31  A    between atoms: CB   and  CG  
ROOT
ATOM     94  CA  PHE A 114      -7.754  -3.619  17.012  1.00 26.06     0.180 C 
ENDROOT
BRANCH  94  95
ATOM     95  CB  PHE A 114      -8.890  -3.080  17.867  1.00 19.95     0.073 C 
BRANCH  95  96
ATOM     96  CG  PHE A 114      -9.206  -1.645  17.596  1.00 17.65    -0.056 A 
ATOM     97  CD1 PHE A 114     -10.524  -1.219  17.458  1.00 13.01     0.007 A 
ATOM     98  CE1 PHE A 114     -10.817   0.109  17.177  1.00  6.74     0.001 A 
ATOM     99  CZ  PHE A 114      -9.788   1.035  17.032  1.00  6.27     0.000 A 
ATOM    100  CE2 PHE A 114      -8.473   0.623  17.168  1.00 17.36     0.001 A 
ATOM    101  CD2 PHE A 114      -8.184  -0.717  17.450  1.00 18.39     0.007 A 
ENDBRANCH  95  96
ENDBRANCH  94  95
END_RES PHE A 114
BEGIN_RES VAL A 116
REMARK  1 active torsions:
REMARK  status: ('A' for Active; 'I' for Inactive)
REMARK   32  A    between atoms: CA   and  CB  
ROOT
ATOM    102  CA  VAL A 116      -2.467   0.283  18.565  1.00 13.48     0.180 C 
ENDROOT
BRANCH 102 103
ATOM    103  CB  VAL A 116      -3.101   1.238  19.599  1.00 20.86     0.009 C 
ATOM    104  CG1 VAL A 116      -3.090   2.667  19.050  1.00 25.01     0.012 C 
ATOM    105  CG2 VAL A 116      -4.498   0.791  19.959  1.00 25.34     0.012 C 
ENDBRANCH 102 103
END_RES VAL A 116
BEGIN_RES ILE A 123
REMARK  2 active torsions:
REMARK  status: ('A' for Active; 'I' for Inactive)
REMARK   33  A    between atoms: CA   and  CB  
REMARK   34  A    between atoms: CB   and  CG1 
ROOT
ATOM    106  CA  ILE A 123       1.557  -1.626  23.222  1.00 15.07     0.180 C 
ENDROOT
BRANCH 106 107
ATOM    107  CB  ILE A 123       1.697  -0.112  23.461  1.00 14.41     0.013 C 
ATOM    108  CG2 ILE A 123       3.105   0.210  23.930  1.00 18.35     0.012 C 
BRANCH 107 109
ATOM    109  CG1 ILE A 123       1.378   0.658  22.182  1.00 15.23     0.002 C 
ATOM    110  CD1 ILE A 123       0.240   1.639  22.334  1.00 14.67     0.005 C 
ENDBRANCH 107 109
ENDBRANCH 106 107
END_RES ILE A 123
BEGIN_RES LEU A 124
REMARK  2 active torsions:
REMARK  status: ('A' for Active; 'I' for Inactive)
REMARK   35  A    between atoms: CA   and  CB  
REMARK   36  A    between atoms: CB   and  CG  
ROOT
ATOM    111  CA  LEU A 124      -2.057  -2.686  23.524  1.00 11.86     0.177 C 
ENDROOT
BRANCH 111 112
ATOM    112  CB  LEU A 124      -2.698  -1.652  24.429  1.00 14.60     0.038 C 
BRANCH 112 113
ATOM    113  CG  LEU A 124      -2.674  -0.261  23.814  1.00 16.19    -0.020 C 
ATOM    114  CD1 LEU A 124      -4.113   0.154  23.454  1.00 22.07     0.009 C 
ATOM    115  CD2 LEU A 124      -2.035   0.705  24.781  1.00  9.12     0.009 C 
ENDBRANCH 112 113
ENDBRANCH 111 112
END_RES LEU A 124
BEGIN_RES PHE A 126
REMARK  2 active torsions:
REMARK  status: ('A' for Active; 'I' for Inactive)
REMARK   37  A    between atoms: CA   and  CB  
REMARK   38  A    between atoms: CB   and  CG  
ROOT
ATOM    116  CA  PHE A 126      -8.784  -4.792  22.233  1.00 23.15     0.180 C 
ENDROOT
BRANCH 116 117
ATOM    117  CB  PHE A 126      -9.823  -4.011  21.461  1.00 20.65     0.073 C 
BRANCH 117 118
ATOM    118  CG  PHE A 126     -10.948  -3.541  22.297  1.00 23.65    -0.056 A 
ATOM    119  CD2 PHE A 126     -10.757  -2.553  23.247  1.00 36.63     0.007 A 
ATOM    120  CE2 PHE A 126     -11.825  -2.107  24.038  1.00 36.27     0.001 A 
ATOM    121  CZ  PHE A 126     -13.087  -2.659  23.871  1.00 18.06     0.000 A 
ATOM    122  CE1 PHE A 126     -13.281  -3.643  22.923  1.00  5.50     0.001 A 
ATOM    123  CD1 PHE A 126     -12.214  -4.079  22.138  1.00 15.29     0.007 A 
ENDBRANCH 117 118
ENDBRANCH 116 117
END_RES PHE A 126
BEGIN_RES TRP A 131
REMARK  2 active torsions:
REMARK  status: ('A' for Active; 'I' for Inactive)
REMARK   39  A    between atoms: CA   and  CB  
REMARK   40  A    between atoms: CB   and  CG  
ROOT
ATOM    124  CA  TRP A 131      -8.096  -3.335  26.542  1.00 14.52     0.181 C 
ENDROOT
BRANCH 124 125
ATOM    125  CB  TRP A 131      -7.651  -1.877  26.607  1.00 13.06     0.075 C 
BRANCH 125 126
ATOM    126  CG  TRP A 131      -8.088  -1.041  25.424  1.00 16.97    -0.028 A 
ATOM    127  CD2 TRP A 131      -9.166  -0.101  25.397  1.00 11.34    -0.002 A 
ATOM    128  CE2 TRP A 131      -9.212   0.451  24.102  1.00  5.87     0.042 A 
ATOM    129  CE3 TRP A 131     -10.099   0.325  26.348  1.00  3.80     0.014 A 
ATOM    130  CZ2 TRP A 131     -10.155   1.412  23.734  1.00  1.35     0.030 A 
ATOM    131  NE1 TRP A 131      -8.210  -0.126  23.372  1.00 13.90    -0.365 N 
ATOM    132  CH2 TRP A 131     -11.058   1.814  24.687  1.00  1.00     0.002 A 
ATOM    133  CZ3 TRP A 131     -11.037   1.276  25.988  1.00  1.00     0.001 A 
ATOM    134  CD1 TRP A 131      -7.538  -1.021  24.172  1.00 17.22     0.096 A 
ATOM    135  H07 TRP A 131      -7.998   0.072  22.405  1.00 13.90     0.165 HD
ENDBRANCH 125 126
ENDBRANCH 124 125
END_RES TRP A 131
BEGIN_RES LEU A 148
REMARK  2 active torsions:
REMARK  status: ('A' for Active; 'I' for Inactive)
REMARK   41  A    between atoms: CA   and  CB  
REMARK   42  A    between atoms: CB   and  CG  
ROOT
ATOM    136  CA  LEU A 148      -9.018   3.259  29.295  1.00 16.99     0.177 C 
ENDROOT
BRANCH 136 137
ATOM    137  CB  LEU A 148      -8.166   2.574  28.236  1.00  6.39     0.038 C 
BRANCH 137 138
ATOM    138  CG  LEU A 148      -7.289   3.377  27.298  1.00  1.00    -0.020 C 
ATOM    139  CD2 LEU A 148      -7.950   3.515  25.957  1.00  1.00     0.009 C 
ATOM    140  CD1 LEU A 148      -5.956   2.664  27.165  1.00  2.71     0.009 C 
ENDBRANCH 137 138
ENDBRANCH 136 137
END_RES LEU A 148
BEGIN_RES THR A 154
REMARK  2 active torsions:
REMARK  status: ('A' for Active; 'I' for Inactive)
REMARK   43  A    between atoms: CA   and  CB  
REMARK   44  A    between atoms: CB   and  OG1 
ROOT
ATOM    141  CA  THR A 154     -15.990   3.959  24.426  1.00 20.45     0.205 C 
ENDROOT
BRANCH 141 142
ATOM    142  CB  THR A 154     -14.777   4.829  24.694  1.00 16.79     0.146 C 
ATOM    143  CG2 THR A 154     -13.626   4.413  23.798  1.00 20.24     0.042 C 
BRANCH 142 144
ATOM    144  OG1 THR A 154     -15.113   6.194  24.413  1.00 18.84    -0.393 OA
ATOM    145  H06 THR A 154     -16.064   6.307  24.467  1.00 18.84     0.210 HD
ENDBRANCH 142 144
ENDBRANCH 141 142
END_RES THR A 154
BEGIN_RES VAL A 158
REMARK  1 active torsions:
REMARK  status: ('A' for Active; 'I' for Inactive)
REMARK   45  A    between atoms: CA   and  CB  
ROOT
ATOM    146  CA  VAL A 158     -15.487  -0.189  19.892  1.00 15.49     0.180 C 
ENDROOT
BRANCH 146 147
ATOM    147  CB  VAL A 158     -14.291  -0.273  20.822  1.00  6.52     0.009 C 
ATOM    148  CG1 VAL A 158     -13.245  -1.214  20.271  1.00  1.00     0.012 C 
ATOM    149  CG2 VAL A 158     -13.725   1.102  21.001  1.00  5.99     0.012 C 
ENDBRANCH 146 147
END_RES VAL A 158
BEGIN_RES LEU A 161
REMARK  2 active torsions:
REMARK  status: ('A' for Active; 'I' for Inactive)
REMARK   46  A    between atoms: CA   and  CB  
REMARK   47  A    between atoms: CB   and  CG  
ROOT
ATOM    150  CA  LEU A 161     -18.031  -1.858  15.935  1.00 13.31     0.177 C 
ENDROOT
BRANCH 150 151
ATOM    151  CB  LEU A 161     -17.046  -0.706  16.001  1.00 14.13     0.038 C 
BRANCH 151 152
ATOM    152  CG  LEU A 161     -17.381   0.518  15.157  1.00 19.39    -0.020 C 
ATOM    153  CD2 LEU A 161     -16.522   1.688  15.571  1.00 27.75     0.009 C 
ATOM    154  CD1 LEU A 161     -18.836   0.854  15.344  1.00 18.59     0.009 C 
ENDBRANCH 151 152
ENDBRANCH 150 151
END_RES LEU A 161
BEGIN_RES GLN A 168
REMARK  3 active torsions:
REMARK  status: ('A' for Active; 'I' for Inactive)
REMARK   48  A    between atoms: CA   and  CB  
REMARK   49  A    between atoms: CB   and  CG  
REMARK   50  A    between atoms: CG   and  CD  
REMARK       I    between atoms: CD   and  NE2 
ROOT
ATOM    155  CA  GLN A 168     -22.035  -6.020   8.155  1.00 30.94     0.177 C 
ENDROOT
BRANCH 155 156
ATOM    156  CB  GLN A 168     -23.054  -5.218   8.946  1.00 41.76     0.044 C 
BRANCH 156 157
ATOM    157  CG  GLN A 168     -24.474  -5.695   8.799  1.00 61.20     0.105 C 
BRANCH 157 158
ATOM    158  CD  GLN A 168     -25.075  -5.278   7.471  1.00 75.49     0.215 C 
ATOM    159  NE2 GLN A 168     -25.493  -6.266   6.677  1.00 85.00    -0.370 N 
ATOM    160  H06 GLN A 168     -25.901  -6.053   5.778  1.00 85.00     0.159 HD
ATOM    161  H07 GLN A 168     -25.402  -7.227   6.976  1.00 85.00     0.159 HD
ATOM    162  OE1 GLN A 168     -25.159  -4.083   7.153  1.00 73.64    -0.274 OA
ENDBRANCH 157 158
ENDBRANCH 156 157
ENDBRANCH 155 156
END_RES GLN A 168
ENDMDL
MODEL 8
REMARK VINA RESULT:      -7.7      1.877      3.500
REMARK  Name = human_CD1d_tritonX_pred.rank_0
REMARK  32 active torsions:
REMARK  status: ('A' for Active; 'I' for Inactive)
REMARK    1  A    between atoms: O_2  and  C_21
REMARK    2  A    between atoms: O_2  and  C_23
REMARK    3  A    between atoms: C_3  and  C_5
REMARK    4  A    between atoms: C_3  and  C_15
REMARK    5  A    between atoms: O_4  and  C_24
REMARK    6  A    between atoms: O_4  and  C_25
REMARK    7  A    between atoms: O_6  and  C_26
REMARK    8  A    between atoms: O_6  and  C_27
REMARK    9  A    between atoms: O_8  and  C_28
REMARK   10  A    between atoms: O_8  and  C_29
REMARK   11  A    between atoms: O_10  and  C_30
REMARK   12  A    between atoms: O_10  and  C_31
REMARK   13  A    between atoms: O_12  and  C_32
REMARK   14  A    between atoms: O_12  and  C_33
REMARK   15  A    between atoms: O_14  and  C_34
REMARK   16  A    between atoms: O_14  and  C_35
REMARK   17  A    between atoms: O_16  and  C_36
REMARK   18  A    between atoms: O_16  and  C_37
REMARK   19  A    between atoms: O_18  and  C_38
REMARK   20  A    between atoms: O_18  and  C_39
REMARK   21  A    between atoms: O_20  and  C_40
REMARK   22  A    between atoms: O_20  and  C_41
REMARK   23  A    between atoms: C_23  and  C_24
REMARK   24  A    between atoms: C_25  and  C_26
REMARK   25  A    between atoms: C_27  and  C_28
REMARK   26  A    between atoms: C_29  and  C_30
REMARK   27  A    between atoms: C_31  and  C_32
REMARK   28  A    between atoms: C_33  and  C_34
REMARK   29  A    between atoms: C_35  and  C_36
REMARK   30  A    between atoms: C_37  and  C_38
REMARK   31  A    between atoms: C_39  and  C_40
REMARK   32  A    between atoms: C_41  and  C_42
REMARK                            x       y       z     vdW  Elec       q    Type
REMARK                         _______ _______ _______ _____ _____    ______ ____
ROOT
ATOM      1  O   UNL     1     -13.851   7.269  21.898  0.00  0.00    +0.000 OA
ENDROOT
BRANCH   1   2
ATOM      2  C   UNL     1     -12.570   7.913  21.908  0.00  0.00    +0.000 C 
BRANCH   2   3
ATOM      3  C   UNL     1     -11.617   7.138  22.808  0.00  0.00    +0.000 C 
BRANCH   3   4
ATOM      4  O   UNL     1     -10.457   6.711  22.127  0.00  0.00    +0.000 OA
BRANCH   4   5
ATOM      5  C   UNL     1      -9.817   5.534  22.592  0.00  0.00    +0.000 C 
BRANCH   5   6
ATOM      6  C   UNL     1      -9.737   4.465  21.506  0.00  0.00    +0.000 C 
BRANCH   6   7
ATOM      7  O   UNL     1      -8.472   3.815  21.562  0.00  0.00    +0.000 OA
BRANCH   7   8
ATOM      8  C   UNL     1      -7.719   4.032  22.770  0.00  0.00    +0.000 C 
BRANCH   8   9
ATOM      9  C   UNL     1      -6.498   3.113  22.791  0.00  0.00    +0.000 C 
BRANCH   9  10
ATOM     10  O   UNL     1      -5.382   3.712  22.115  0.00  0.00    +0.000 OA
BRANCH  10  14
ATOM     11  C   UNL     1      -1.827   4.318  24.111  0.00  0.00    +0.000 A 
ATOM     12  C   UNL     1      -1.898   4.217  22.708  0.00  0.00    +0.000 A 
ATOM     13  C   UNL     1      -3.075   4.010  22.056  0.00  0.00    +0.000 A 
ATOM     14  C   UNL     1      -4.223   3.952  22.803  0.00  0.00    +0.000 A 
ATOM     15  C   UNL     1      -4.210   4.056  24.162  0.00  0.00    +0.000 A 
ATOM     16  C   UNL     1      -3.044   4.248  24.829  0.00  0.00    +0.000 A 
BRANCH  11  18
ATOM     17  C   UNL     1      -0.555   3.633  26.090  0.00  0.00    +0.000 C 
ATOM     18  C   UNL     1      -0.536   4.520  24.865  0.00  0.00    +0.000 C 
ATOM     19  C   UNL     1       0.561   4.068  23.949  0.00  0.00    +0.000 C 
BRANCH  18  20
ATOM     20  C   UNL     1      -0.263   5.989  25.263  0.00  0.00    +0.000 C 
ATOM     21  C   UNL     1      -1.293   6.905  24.625  0.00  0.00    +0.000 C 
ATOM     22  C   UNL     1       1.072   6.442  24.791  0.00  0.00    +0.000 C 
ATOM     23  C   UNL     1      -0.372   6.170  26.755  0.00  0.00    +0.000 C 
ENDBRANCH  18  20
ENDBRANCH  11  18
ENDBRANCH  10  14
ENDBRANCH   9  10
ENDBRANCH   8   9
ENDBRANCH   7   8
ENDBRANCH   6   7
ENDBRANCH   5   6
ENDBRANCH   4   5
ENDBRANCH   3   4
ENDBRANCH   2   3
ENDBRANCH   1   2
BRANCH   1  24
ATOM     24  C   UNL     1     -13.993   6.341  20.798  0.00  0.00    +0.000 C 
BRANCH  24  25
ATOM     25  C   UNL     1     -15.321   5.620  20.858  0.00  0.00    +0.000 C 
BRANCH  25  26
ATOM     26  O   UNL     1     -15.791   5.319  19.537  0.00  0.00    +0.000 OA
BRANCH  26  27
ATOM     27  C   UNL     1     -15.089   6.030  18.526  0.00  0.00    +0.000 C 
BRANCH  27  28
ATOM     28  C   UNL     1     -14.551   5.096  17.453  0.00  0.00    +0.000 C 
BRANCH  28  29
ATOM     29  O   UNL     1     -13.394   4.398  17.907  0.00  0.00    +0.000 OA
BRANCH  29  30
ATOM     30  C   UNL     1     -12.846   3.496  16.998  0.00  0.00    +0.000 C 
BRANCH  30  31
ATOM     31  C   UNL     1     -13.712   2.269  16.855  0.00  0.00    +0.000 C 
BRANCH  31  32
ATOM     32  O   UNL     1     -13.659   1.725  15.551  0.00  0.00    +0.000 OA
BRANCH  32  33
ATOM     33  C   UNL     1     -13.655   2.678  14.489  0.00  0.00    +0.000 C 
BRANCH  33  34
ATOM     34  C   UNL     1     -12.961   2.111  13.276  0.00  0.00    +0.000 C 
BRANCH  34  35
ATOM     35  O   UNL     1     -12.637   0.753  13.446  0.00  0.00    +0.000 OA
BRANCH  35  36
ATOM     36  C   UNL     1     -12.260   0.078  12.291  0.00  0.00    +0.000 C 
BRANCH  36  37
ATOM     37  C   UNL     1     -12.835  -1.320  12.289  0.00  0.00    +0.000 C 
BRANCH  37  38
ATOM     38  O   UNL     1     -13.539  -1.599  11.058  0.00  0.00    +0.000 OA
BRANCH  38  39
ATOM     39  C   UNL     1     -14.743  -0.843  10.909  0.00  0.00    +0.000 C 
BRANCH  39  40
ATOM     40  C   UNL     1     -14.782  -0.096   9.595  0.00  0.00    +0.000 C 
BRANCH  40  41
ATOM     41  O   UNL     1     -15.452   1.153   9.694  0.00  0.00    +0.000 OA
BRANCH  41  42
ATOM     42  C   UNL     1     -15.355   1.962   8.521  0.00  0.00    +0.000 C 
BRANCH  42  44
ATOM     43  O   UNL     1     -14.233   2.240   6.434  0.00  0.00    +0.000 OA
ATOM     44  C   UNL     1     -14.227   1.491   7.624  0.00  0.00    +0.000 C 
ENDBRANCH  42  44
ENDBRANCH  41  42
ENDBRANCH  40  41
ENDBRANCH  39  40
ENDBRANCH  38  39
ENDBRANCH  37  38
ENDBRANCH  36  37
ENDBRANCH  35  36
ENDBRANCH  34  35
ENDBRANCH  33  34
ENDBRANCH  32  33
ENDBRANCH  31  32
ENDBRANCH  30  31
ENDBRANCH  29  30
ENDBRANCH  28  29
ENDBRANCH  27  28
ENDBRANCH  26  27
ENDBRANCH  25  26
ENDBRANCH  24  25
ENDBRANCH   1  24
TORSDOF 32
BEGIN_RES LEU A  10
REMARK  2 active torsions:
REMARK  status: ('A' for Active; 'I' for Inactive)
REMARK    1  A    between atoms: CA   and  CB  
REMARK    2  A    between atoms: CB   and  CG  
ROOT
ATOM      1  CA  LEU A  10     -10.775  -4.871   5.898  1.00 25.14     0.177 C 
ENDROOT
BRANCH   1   2
ATOM      2  CB  LEU A  10     -12.191  -4.387   6.226  1.00 17.87     0.038 C 
BRANCH   2   3
ATOM      3  CG  LEU A  10     -12.370  -2.868   6.169  1.00 24.95    -0.020 C 
ATOM      4  CD2 LEU A  10     -13.541  -2.485   7.009  1.00 26.38     0.009 C 
ATOM      5  CD1 LEU A  10     -12.561  -2.397   4.737  1.00 28.12     0.009 C 
ENDBRANCH   2   3
ENDBRANCH   1   2
END_RES LEU A  10
BEGIN_RES CYS A  12
REMARK  2 active torsions:
REMARK  status: ('A' for Active; 'I' for Inactive)
REMARK    3  A    between atoms: CA   and  CB  
REMARK    4  A    between atoms: CB   and  SG  
ROOT
ATOM      6  CA  CYS A  12      -8.555   0.470   8.750  1.00 23.16     0.185 C 
ENDROOT
BRANCH   6   7
ATOM      7  CB  CYS A  12      -9.828   0.763   9.555  1.00 20.43     0.105 C 
BRANCH   7   8
ATOM      8  SG  CYS A  12     -10.764   2.243   9.062  1.00 24.64    -0.180 SA
ATOM      9  H04 CYS A  12     -11.544   1.950   8.013  1.00 24.64     0.101 HD
ENDBRANCH   7   8
ENDBRANCH   6   7
END_RES CYS A  12
BEGIN_RES GLN A  14
REMARK  3 active torsions:
REMARK  status: ('A' for Active; 'I' for Inactive)
REMARK    5  A    between atoms: CA   and  CB  
REMARK    6  A    between atoms: CB   and  CG  
REMARK    7  A    between atoms: CG   and  CD  
REMARK       I    between atoms: CD   and  NE2 
ROOT
ATOM     10  CA  GLN A  14      -4.645   5.402  11.377  1.00 10.43     0.177 C 
ENDROOT
BRANCH  10  11
ATOM     11  CB  GLN A  14      -5.541   5.549  12.608  1.00 14.45     0.044 C 
BRANCH  11  12
ATOM     12  CG  GLN A  14      -6.668   6.541  12.436  1.00 13.74     0.105 C 
BRANCH  12  13
ATOM     13  CD  GLN A  14      -7.740   6.386  13.488  1.00 16.29     0.215 C 
ATOM     14  NE2 GLN A  14      -8.931   6.023  13.063  1.00  8.57    -0.370 N 
ATOM     15  H06 GLN A  14      -9.686   5.902  13.722  1.00  8.57     0.159 HD
ATOM     16  H07 GLN A  14      -9.089   5.866  12.078  1.00  8.57     0.159 HD
ATOM     17  OE1 GLN A  14      -7.498   6.586  14.668  1.00 23.55    -0.274 OA
ENDBRANCH  12  13
ENDBRANCH  11  12
ENDBRANCH  10  11
END_RES GLN A  14
BEGIN_RES SER A  16
REMARK  2 active torsions:
REMARK  status: ('A' for Active; 'I' for Inactive)
REMARK    8  A    between atoms: CA   and  CB  
REMARK    9  A    between atoms: CB   and  OG  
ROOT
ATOM     18  CA  SER A  16      -1.305  10.019  14.282  1.00  2.34     0.200 C 
ENDROOT
BRANCH  18  19
ATOM     19  CB  SER A  16      -2.242   9.935  15.479  1.00  3.12     0.199 C 
BRANCH  19  20
ATOM     20  OG  SER A  16      -3.452   9.296  15.113  1.00  1.00    -0.398 OA
ATOM     21  H04 SER A  16      -3.591   8.528  15.672  1.00  1.00     0.209 HD
ENDBRANCH  19  20
ENDBRANCH  18  19
END_RES SER A  16
BEGIN_RES LEU A  32
REMARK  2 active torsions:
REMARK  status: ('A' for Active; 'I' for Inactive)
REMARK   10  A    between atoms: CA   and  CB  
REMARK   11  A    between atoms: CB   and  CG  
ROOT
ATOM     22  CA  LEU A  32     -10.272  -4.106   1.587  1.00 16.16     0.177 C 
ENDROOT
BRANCH  22  23
ATOM     23  CB  LEU A  32     -11.613  -3.858   0.880  1.00 12.35     0.038 C 
BRANCH  23  24
ATOM     24  CG  LEU A  32     -12.586  -5.041   1.062  1.00  9.77    -0.020 C 
ATOM     25  CD1 LEU A  32     -13.026  -5.142   2.503  1.00  4.35     0.009 C 
ATOM     26  CD2 LEU A  32     -13.791  -4.887   0.171  1.00 10.60     0.009 C 
ENDBRANCH  23  24
ENDBRANCH  22  23
END_RES LEU A  32
BEGIN_RES HIS A  38
REMARK  2 active torsions:
REMARK  status: ('A' for Active; 'I' for Inactive)
REMARK   12  A    between atoms: CA   and  CB  
REMARK   13  A    between atoms: CB   and  CG  
ROOT
ATOM     27  CA  HIS A  38     -10.959   4.941   1.621  1.00 16.94     0.182 C 
ENDROOT
BRANCH  27  28
ATOM     28  CB  HIS A  38     -11.810   4.840   2.881  1.00 15.47     0.095 C 
BRANCH  28  29
ATOM     29  CG  HIS A  38     -13.017   3.973   2.726  1.00 18.62     0.053 A 
ATOM     30  CD2 HIS A  38     -14.209   4.207   2.127  1.00 15.06     0.116 A 
ATOM     31  NE2 HIS A  38     -14.952   3.060   2.247  1.00 18.12    -0.359 N 
ATOM     32  CE1 HIS A  38     -14.244   2.155   2.895  1.00 14.78     0.207 A 
ATOM     33  H06 HIS A  38     -15.889   2.930   1.895  1.00 18.12     0.166 HD
ATOM     34  ND1 HIS A  38     -13.073   2.679   3.197  1.00 16.58    -0.247 NA
ENDBRANCH  28  29
ENDBRANCH  27  28
END_RES HIS A  38
BEGIN_RES TRP A  63
REMARK  2 active torsions:
REMARK  status: ('A' for Active; 'I' for Inactive)
REMARK   14  A    between atoms: CA   and  CB  
REMARK   15  A    between atoms: CB   and  CG  
ROOT
ATOM     35  CA  TRP A  63     -22.437   6.257   6.543  1.00 27.04     0.181 C 
ENDROOT
BRANCH  35  36
ATOM     36  CB  TRP A  63     -22.360   6.642   5.068  1.00 31.37     0.075 C 
BRANCH  36  37
ATOM     37  CG  TRP A  63     -20.954   6.733   4.514  1.00 34.37    -0.028 A 
ATOM     38  CD2 TRP A  63     -19.897   5.776   4.669  1.00 33.79    -0.002 A 
ATOM     39  CE3 TRP A  63     -19.771   4.569   5.361  1.00 32.99     0.014 A 
ATOM     40  CE2 TRP A  63     -18.794   6.247   3.924  1.00 35.84     0.042 A 
ATOM     41  CZ3 TRP A  63     -18.569   3.881   5.290  1.00 32.93     0.001 A 
ATOM     42  CH2 TRP A  63     -17.490   4.376   4.541  1.00 39.24     0.002 A 
ATOM     43  CZ2 TRP A  63     -17.584   5.555   3.851  1.00 37.99     0.030 A 
ATOM     44  NE1 TRP A  63     -19.167   7.431   3.348  1.00 37.98    -0.365 N 
ATOM     45  H06 TRP A  63     -18.586   8.004   2.754  1.00 37.98     0.165 HD
ATOM     46  CD1 TRP A  63     -20.462   7.713   3.710  1.00 38.16     0.096 A 
ENDBRANCH  36  37
ENDBRANCH  35  36
END_RES TRP A  63
BEGIN_RES LEU A  66
REMARK  2 active torsions:
REMARK  status: ('A' for Active; 'I' for Inactive)
REMARK   16  A    between atoms: CA   and  CB  
REMARK   17  A    between atoms: CB   and  CG  
ROOT
ATOM     47  CA  LEU A  66     -20.004   6.489  11.120  1.00 10.90     0.177 C 
ENDROOT
BRANCH  47  48
ATOM     48  CB  LEU A  66     -19.626   5.453  10.069  1.00 13.57     0.038 C 
BRANCH  48  49
ATOM     49  CG  LEU A  66     -18.732   4.297  10.516  1.00  8.73    -0.020 C 
ATOM     50  CD1 LEU A  66     -17.287   4.593  10.206  1.00 14.23     0.009 C 
ATOM     51  CD2 LEU A  66     -18.912   4.100  11.999  1.00  1.92     0.009 C 
ENDBRANCH  48  49
ENDBRANCH  47  48
END_RES LEU A  66
BEGIN_RES PHE A  70
REMARK  2 active torsions:
REMARK  status: ('A' for Active; 'I' for Inactive)
REMARK   18  A    between atoms: CA   and  CB  
REMARK   19  A    between atoms: CB   and  CG  
ROOT
ATOM     52  CA  PHE A  70     -14.974   9.434  13.165  1.00  8.78     0.180 C 
ENDROOT
BRANCH  52  53
ATOM     53  CB  PHE A  70     -14.707   9.132  11.681  1.00  6.33     0.073 C 
BRANCH  53  54
ATOM     54  CG  PHE A  70     -13.939   7.857  11.459  1.00  3.42    -0.056 A 
ATOM     55  CD1 PHE A  70     -13.724   7.366  10.180  1.00 13.88     0.007 A 
ATOM     56  CE1 PHE A  70     -13.046   6.150   9.982  1.00 12.71     0.001 A 
ATOM     57  CZ  PHE A  70     -12.581   5.420  11.075  1.00  4.21     0.000 A 
ATOM     58  CE2 PHE A  70     -12.788   5.900  12.355  1.00  2.83     0.001 A 
ATOM     59  CD2 PHE A  70     -13.466   7.117  12.542  1.00  1.00     0.007 A 
ENDBRANCH  53  54
ENDBRANCH  52  53
END_RES PHE A  70
BEGIN_RES TYR A  73
REMARK  3 active torsions:
REMARK  status: ('A' for Active; 'I' for Inactive)
REMARK   20  A    between atoms: CA   and  CB  
REMARK   21  A    between atoms: CB   and  CG  
REMARK   22  A    between atoms: CZ   and  OH  
ROOT
ATOM     60  CA  TYR A  73     -13.212  10.166  17.260  1.00 12.17     0.180 C 
ENDROOT
BRANCH  60  61
ATOM     61  CB  TYR A  73     -13.301   8.846  16.517  1.00 12.84     0.073 C 
BRANCH  61  62
ATOM     62  CG  TYR A  73     -12.218   7.894  16.888  1.00 15.89    -0.056 A 
ATOM     63  CD1 TYR A  73     -11.536   7.183  15.925  1.00 16.00     0.010 A 
ATOM     64  CE1 TYR A  73     -10.542   6.268  16.272  1.00 13.55     0.037 A 
ATOM     65  CZ  TYR A  73     -10.239   6.070  17.604  1.00 18.13     0.065 A 
ATOM     66  CE2 TYR A  73     -10.905   6.768  18.585  1.00 15.89     0.037 A 
ATOM     67  CD2 TYR A  73     -11.892   7.676  18.221  1.00 21.86     0.010 A 
BRANCH  65  68
ATOM     68  OH  TYR A  73      -9.261   5.178  17.968  1.00 12.12    -0.361 OA
ATOM     69  H08 TYR A  73      -9.560   4.663  18.721  1.00 12.12     0.217 HD
ENDBRANCH  65  68
ENDBRANCH  61  62
ENDBRANCH  60  61
END_RES TYR A  73
BEGIN_RES PHE A  77
REMARK  2 active torsions:
REMARK  status: ('A' for Active; 'I' for Inactive)
REMARK   23  A    between atoms: CA   and  CB  
REMARK   24  A    between atoms: CB   and  CG  
ROOT
ATOM     70  CA  PHE A  77      -8.400  10.581  20.110  1.00 17.17     0.180 C 
ENDROOT
BRANCH  70  71
ATOM     71  CB  PHE A  77      -8.228   9.750  18.851  1.00 10.44     0.073 C 
BRANCH  71  72
ATOM     72  CG  PHE A  77      -7.495   8.464  19.073  1.00  6.07    -0.056 A 
ATOM     73  CD2 PHE A  77      -7.501   7.860  20.309  1.00  9.61     0.007 A 
ATOM     74  CE2 PHE A  77      -6.824   6.665  20.524  1.00  1.00     0.001 A 
ATOM     75  CZ  PHE A  77      -6.134   6.065  19.484  1.00  1.92     0.000 A 
ATOM     76  CE1 PHE A  77      -6.120   6.656  18.241  1.00  9.25     0.001 A 
ATOM     77  CD1 PHE A  77      -6.801   7.856  18.040  1.00  9.63     0.007 A 
ENDBRANCH  71  72
ENDBRANCH  70  71
END_RES PHE A  77
BEGIN_RES LEU A  96
REMARK  2 active torsions:
REMARK  status: ('A' for Active; 'I' for Inactive)
REMARK   25  A    between atoms: CA   and  CB  
REMARK   26  A    between atoms: CB   and  CG  
ROOT
ATOM     78  CA  LEU A  96       0.717   6.481  17.359  1.00 16.08     0.177 C 
ENDROOT
BRANCH  78  79
ATOM     79  CB  LEU A  96      -0.370   7.101  18.230  1.00 18.83     0.038 C 
BRANCH  79  80
ATOM     80  CG  LEU A  96      -0.804   6.238  19.414  1.00 19.03    -0.020 C 
ATOM     81  CD1 LEU A  96      -0.196   6.801  20.678  1.00 28.17     0.009 C 
ATOM     82  CD2 LEU A  96      -2.308   6.257  19.558  1.00 22.01     0.009 C 
ENDBRANCH  79  80
ENDBRANCH  78  79
END_RES LEU A  96
BEGIN_RES VAL A  98
REMARK  1 active torsions:
REMARK  status: ('A' for Active; 'I' for Inactive)
REMARK   27  A    between atoms: CA   and  CB  
ROOT
ATOM     83  CA  VAL A  98      -3.928   2.082  14.897  1.00 19.83     0.180 C 
ENDROOT
BRANCH  83  84
ATOM     84  CB  VAL A  98      -5.203   2.807  15.281  1.00 17.87     0.009 C 
ATOM     85  CG2 VAL A  98      -4.898   4.241  15.628  1.00 29.90     0.012 C 
ATOM     86  CG1 VAL A  98      -5.856   2.099  16.449  1.00 14.79     0.012 C 
ENDBRANCH  83  84
END_RES VAL A  98
BEGIN_RES ASN A 112
REMARK  2 active torsions:
REMARK  status: ('A' for Active; 'I' for Inactive)
REMARK   28  A    between atoms: CA   and  CB  
REMARK   29  A    between atoms: CB   and  CG  
REMARK       I    between atoms: CG   and  ND2 
ROOT
ATOM     87  CA  ASN A 112     -11.790  -8.793  14.069  1.00 37.70     0.185 C 
ENDROOT
BRANCH  87  88
ATOM     88  CB  ASN A 112     -12.992  -7.945  14.465  1.00 26.24     0.137 C 
BRANCH  88  89
ATOM     89  CG  ASN A 112     -13.817  -8.566  15.570  1.00 21.77     0.217 C 
ATOM     90  ND2 ASN A 112     -14.968  -9.128  15.200  1.00  9.31    -0.370 N 
ATOM     91  H04 ASN A 112     -15.565  -9.558  15.892  1.00  9.31     0.159 HD
ATOM     92  H05 ASN A 112     -15.242  -9.124  14.227  1.00  9.31     0.159 HD
ATOM     93  OD1 ASN A 112     -13.431  -8.539  16.744  1.00 21.61    -0.274 OA
ENDBRANCH  88  89
ENDBRANCH  87  88
END_RES ASN A 112
BEGIN_RES PHE A 114
REMARK  2 active torsions:
REMARK  status: ('A' for Active; 'I' for Inactive)
REMARK   30  A    between atoms: CA   and  CB  
REMARK   31  A    between atoms: CB   and  CG  
ROOT
ATOM     94  CA  PHE A 114      -7.754  -3.619  17.012  1.00 26.06     0.180 C 
ENDROOT
BRANCH  94  95
ATOM     95  CB  PHE A 114      -8.890  -3.080  17.867  1.00 19.95     0.073 C 
BRANCH  95  96
ATOM     96  CG  PHE A 114      -9.220  -1.651  17.581  1.00 17.65    -0.056 A 
ATOM     97  CD1 PHE A 114      -8.215  -0.691  17.491  1.00 13.01     0.007 A 
ATOM     98  CE1 PHE A 114      -8.523   0.642  17.255  1.00  6.74     0.001 A 
ATOM     99  CZ  PHE A 114      -9.849   1.034  17.100  1.00  6.27     0.000 A 
ATOM    100  CE2 PHE A 114     -10.858   0.088  17.186  1.00 17.36     0.001 A 
ATOM    101  CD2 PHE A 114     -10.541  -1.253  17.426  1.00 18.39     0.007 A 
ENDBRANCH  95  96
ENDBRANCH  94  95
END_RES PHE A 114
BEGIN_RES VAL A 116
REMARK  1 active torsions:
REMARK  status: ('A' for Active; 'I' for Inactive)
REMARK   32  A    between atoms: CA   and  CB  
ROOT
ATOM    102  CA  VAL A 116      -2.467   0.283  18.565  1.00 13.48     0.180 C 
ENDROOT
BRANCH 102 103
ATOM    103  CB  VAL A 116      -3.101   1.238  19.599  1.00 20.86     0.009 C 
ATOM    104  CG1 VAL A 116      -3.304   2.617  18.965  1.00 25.01     0.012 C 
ATOM    105  CG2 VAL A 116      -4.398   0.673  20.129  1.00 25.34     0.012 C 
ENDBRANCH 102 103
END_RES VAL A 116
BEGIN_RES ILE A 123
REMARK  2 active torsions:
REMARK  status: ('A' for Active; 'I' for Inactive)
REMARK   33  A    between atoms: CA   and  CB  
REMARK   34  A    between atoms: CB   and  CG1 
ROOT
ATOM    106  CA  ILE A 123       1.557  -1.626  23.222  1.00 15.07     0.180 C 
ENDROOT
BRANCH 106 107
ATOM    107  CB  ILE A 123       1.697  -0.112  23.461  1.00 14.41     0.013 C 
ATOM    108  CG2 ILE A 123       3.069   0.196  24.034  1.00 18.35     0.012 C 
BRANCH 107 109
ATOM    109  CG1 ILE A 123       1.486   0.652  22.156  1.00 15.23     0.002 C 
ATOM    110  CD1 ILE A 123       0.131   1.310  22.052  1.00 14.67     0.005 C 
ENDBRANCH 107 109
ENDBRANCH 106 107
END_RES ILE A 123
BEGIN_RES LEU A 124
REMARK  2 active torsions:
REMARK  status: ('A' for Active; 'I' for Inactive)
REMARK   35  A    between atoms: CA   and  CB  
REMARK   36  A    between atoms: CB   and  CG  
ROOT
ATOM    111  CA  LEU A 124      -2.057  -2.686  23.524  1.00 11.86     0.177 C 
ENDROOT
BRANCH 111 112
ATOM    112  CB  LEU A 124      -2.698  -1.652  24.429  1.00 14.60     0.038 C 
BRANCH 112 113
ATOM    113  CG  LEU A 124      -2.653  -0.257  23.824  1.00 16.19    -0.020 C 
ATOM    114  CD1 LEU A 124      -4.094   0.231  23.580  1.00 22.07     0.009 C 
ATOM    115  CD2 LEU A 124      -1.896   0.666  24.746  1.00  9.12     0.009 C 
ENDBRANCH 112 113
ENDBRANCH 111 112
END_RES LEU A 124
BEGIN_RES PHE A 126
REMARK  2 active torsions:
REMARK  status: ('A' for Active; 'I' for Inactive)
REMARK   37  A    between atoms: CA   and  CB  
REMARK   38  A    between atoms: CB   and  CG  
ROOT
ATOM    116  CA  PHE A 126      -8.784  -4.792  22.233  1.00 23.15     0.180 C 
ENDROOT
BRANCH 116 117
ATOM    117  CB  PHE A 126      -9.823  -4.011  21.461  1.00 20.65     0.073 C 
BRANCH 117 118
ATOM    118  CG  PHE A 126     -10.945  -3.535  22.298  1.00 23.65    -0.056 A 
ATOM    119  CD2 PHE A 126     -10.750  -2.543  23.243  1.00 36.63     0.007 A 
ATOM    120  CE2 PHE A 126     -11.814  -2.091  24.035  1.00 36.27     0.001 A 
ATOM    121  CZ  PHE A 126     -13.077  -2.642  23.875  1.00 18.06     0.000 A 
ATOM    122  CE1 PHE A 126     -13.276  -3.631  22.932  1.00  5.50     0.001 A 
ATOM    123  CD1 PHE A 126     -12.212  -4.072  22.146  1.00 15.29     0.007 A 
ENDBRANCH 117 118
ENDBRANCH 116 117
END_RES PHE A 126
BEGIN_RES TRP A 131
REMARK  2 active torsions:
REMARK  status: ('A' for Active; 'I' for Inactive)
REMARK   39  A    between atoms: CA   and  CB  
REMARK   40  A    between atoms: CB   and  CG  
ROOT
ATOM    124  CA  TRP A 131      -8.096  -3.335  26.542  1.00 14.52     0.181 C 
ENDROOT
BRANCH 124 125
ATOM    125  CB  TRP A 131      -7.651  -1.877  26.607  1.00 13.06     0.075 C 
BRANCH 125 126
ATOM    126  CG  TRP A 131      -8.055  -1.050  25.406  1.00 16.97    -0.028 A 
ATOM    127  CD2 TRP A 131      -9.128  -0.107  25.343  1.00 11.34    -0.002 A 
ATOM    128  CE2 TRP A 131      -9.140   0.434  24.043  1.00  5.87     0.042 A 
ATOM    129  CE3 TRP A 131     -10.083   0.332  26.267  1.00  3.80     0.014 A 
ATOM    130  CZ2 TRP A 131     -10.070   1.395  23.642  1.00  1.35     0.030 A 
ATOM    131  NE1 TRP A 131      -8.122  -0.154  23.343  1.00 13.90    -0.365 N 
ATOM    132  CH2 TRP A 131     -10.995   1.808  24.569  1.00  1.00     0.002 A 
ATOM    133  CZ3 TRP A 131     -11.008   1.283  25.874  1.00  1.00     0.001 A 
ATOM    134  CD1 TRP A 131      -7.473  -1.044  24.168  1.00 17.22     0.096 A 
ATOM    135  H07 TRP A 131      -7.885   0.034  22.380  1.00 13.90     0.165 HD
ENDBRANCH 125 126
ENDBRANCH 124 125
END_RES TRP A 131
BEGIN_RES LEU A 148
REMARK  2 active torsions:
REMARK  status: ('A' for Active; 'I' for Inactive)
REMARK   41  A    between atoms: CA   and  CB  
REMARK   42  A    between atoms: CB   and  CG  
ROOT
ATOM    136  CA  LEU A 148      -9.018   3.259  29.295  1.00 16.99     0.177 C 
ENDROOT
BRANCH 136 137
ATOM    137  CB  LEU A 148      -8.166   2.574  28.236  1.00  6.39     0.038 C 
BRANCH 137 138
ATOM    138  CG  LEU A 148      -7.496   3.371  27.135  1.00  1.00    -0.020 C 
ATOM    139  CD2 LEU A 148      -8.527   4.045  26.279  1.00  1.00     0.009 C 
ATOM    140  CD1 LEU A 148      -6.652   2.420  26.306  1.00  2.71     0.009 C 
ENDBRANCH 137 138
ENDBRANCH 136 137
END_RES LEU A 148
BEGIN_RES THR A 154
REMARK  2 active torsions:
REMARK  status: ('A' for Active; 'I' for Inactive)
REMARK   43  A    between atoms: CA   and  CB  
REMARK   44  A    between atoms: CB   and  OG1 
ROOT
ATOM    141  CA  THR A 154     -15.990   3.959  24.426  1.00 20.45     0.205 C 
ENDROOT
BRANCH 141 142
ATOM    142  CB  THR A 154     -14.777   4.829  24.694  1.00 16.79     0.146 C 
ATOM    143  CG2 THR A 154     -13.595   4.345  23.877  1.00 20.24     0.042 C 
BRANCH 142 144
ATOM    144  OG1 THR A 154     -15.080   6.178  24.316  1.00 18.84    -0.393 OA
ATOM    145  H06 THR A 154     -14.393   6.764  24.641  1.00 18.84     0.210 HD
ENDBRANCH 142 144
ENDBRANCH 141 142
END_RES THR A 154
BEGIN_RES VAL A 158
REMARK  1 active torsions:
REMARK  status: ('A' for Active; 'I' for Inactive)
REMARK   45  A    between atoms: CA   and  CB  
ROOT
ATOM    146  CA  VAL A 158     -15.487  -0.189  19.892  1.00 15.49     0.180 C 
ENDROOT
BRANCH 146 147
ATOM    147  CB  VAL A 158     -14.291  -0.273  20.822  1.00  6.52     0.009 C 
ATOM    148  CG1 VAL A 158     -13.238  -1.203  20.264  1.00  1.00     0.012 C 
ATOM    149  CG2 VAL A 158     -13.734   1.104  21.013  1.00  5.99     0.012 C 
ENDBRANCH 146 147
END_RES VAL A 158
BEGIN_RES LEU A 161
REMARK  2 active torsions:
REMARK  status: ('A' for Active; 'I' for Inactive)
REMARK   46  A    between atoms: CA   and  CB  
REMARK   47  A    between atoms: CB   and  CG  
ROOT
ATOM    150  CA  LEU A 161     -18.031  -1.858  15.935  1.00 13.31     0.177 C 
ENDROOT
BRANCH 150 151
ATOM    151  CB  LEU A 161     -17.046  -0.706  16.001  1.00 14.13     0.038 C 
BRANCH 151 152
ATOM    152  CG  LEU A 161     -17.412   0.541  15.206  1.00 19.39    -0.020 C 
ATOM    153  CD2 LEU A 161     -16.588   0.616  13.944  1.00 27.75     0.009 C 
ATOM    154  CD1 LEU A 161     -17.159   1.754  16.060  1.00 18.59     0.009 C 
ENDBRANCH 151 152
ENDBRANCH 150 151
END_RES LEU A 161
BEGIN_RES GLN A 168
REMARK  3 active torsions:
REMARK  status: ('A' for Active; 'I' for Inactive)
REMARK   48  A    between atoms: CA   and  CB  
REMARK   49  A    between atoms: CB   and  CG  
REMARK   50  A    between atoms: CG   and  CD  
REMARK       I    between atoms: CD   and  NE2 
ROOT
ATOM    155  CA  GLN A 168     -22.035  -6.020   8.155  1.00 30.94     0.177 C 
ENDROOT
BRANCH 155 156
ATOM    156  CB  GLN A 168     -23.054  -5.218   8.946  1.00 41.76     0.044 C 
BRANCH 156 157
ATOM    157  CG  GLN A 168     -24.182  -6.033   9.517  1.00 61.20     0.105 C 
BRANCH 157 158
ATOM    158  CD  GLN A 168     -24.441  -5.699  10.974  1.00 75.49     0.215 C 
ATOM    159  NE2 GLN A 168     -24.070  -6.620  11.865  1.00 85.00    -0.370 N 
ATOM    160  H06 GLN A 168     -24.218  -6.457  12.851  1.00 85.00     0.159 HD
ATOM    161  H07 GLN A 168     -23.642  -7.481  11.553  1.00 85.00     0.159 HD
ATOM    162  OE1 GLN A 168     -24.973  -4.628  11.299  1.00 73.64    -0.274 OA
ENDBRANCH 157 158
ENDBRANCH 156 157
ENDBRANCH 155 156
END_RES GLN A 168
ENDMDL
MODEL 9
REMARK VINA RESULT:      -7.7      1.544      2.868
REMARK  Name = human_CD1d_tritonX_pred.rank_0
REMARK  32 active torsions:
REMARK  status: ('A' for Active; 'I' for Inactive)
REMARK    1  A    between atoms: O_2  and  C_21
REMARK    2  A    between atoms: O_2  and  C_23
REMARK    3  A    between atoms: C_3  and  C_5
REMARK    4  A    between atoms: C_3  and  C_15
REMARK    5  A    between atoms: O_4  and  C_24
REMARK    6  A    between atoms: O_4  and  C_25
REMARK    7  A    between atoms: O_6  and  C_26
REMARK    8  A    between atoms: O_6  and  C_27
REMARK    9  A    between atoms: O_8  and  C_28
REMARK   10  A    between atoms: O_8  and  C_29
REMARK   11  A    between atoms: O_10  and  C_30
REMARK   12  A    between atoms: O_10  and  C_31
REMARK   13  A    between atoms: O_12  and  C_32
REMARK   14  A    between atoms: O_12  and  C_33
REMARK   15  A    between atoms: O_14  and  C_34
REMARK   16  A    between atoms: O_14  and  C_35
REMARK   17  A    between atoms: O_16  and  C_36
REMARK   18  A    between atoms: O_16  and  C_37
REMARK   19  A    between atoms: O_18  and  C_38
REMARK   20  A    between atoms: O_18  and  C_39
REMARK   21  A    between atoms: O_20  and  C_40
REMARK   22  A    between atoms: O_20  and  C_41
REMARK   23  A    between atoms: C_23  and  C_24
REMARK   24  A    between atoms: C_25  and  C_26
REMARK   25  A    between atoms: C_27  and  C_28
REMARK   26  A    between atoms: C_29  and  C_30
REMARK   27  A    between atoms: C_31  and  C_32
REMARK   28  A    between atoms: C_33  and  C_34
REMARK   29  A    between atoms: C_35  and  C_36
REMARK   30  A    between atoms: C_37  and  C_38
REMARK   31  A    between atoms: C_39  and  C_40
REMARK   32  A    between atoms: C_41  and  C_42
REMARK                            x       y       z     vdW  Elec       q    Type
REMARK                         _______ _______ _______ _____ _____    ______ ____
ROOT
ATOM      1  O   UNL     1     -11.621   8.285  20.970  0.00  0.00    +0.000 OA
ENDROOT
BRANCH   1   2
ATOM      2  C   UNL     1     -12.209   7.304  21.835  0.00  0.00    +0.000 C 
BRANCH   2   3
ATOM      3  C   UNL     1     -11.761   7.556  23.269  0.00  0.00    +0.000 C 
BRANCH   3   4
ATOM      4  O   UNL     1     -10.925   6.531  23.763  0.00  0.00    +0.000 OA
BRANCH   4   5
ATOM      5  C   UNL     1      -9.635   6.401  23.189  0.00  0.00    +0.000 C 
BRANCH   5   6
ATOM      6  C   UNL     1      -9.357   4.971  22.738  0.00  0.00    +0.000 C 
BRANCH   6   7
ATOM      7  O   UNL     1      -8.047   4.885  22.186  0.00  0.00    +0.000 OA
BRANCH   7   8
ATOM      8  C   UNL     1      -7.722   3.630  21.560  0.00  0.00    +0.000 C 
BRANCH   8   9
ATOM      9  C   UNL     1      -6.483   3.026  22.221  0.00  0.00    +0.000 C 
BRANCH   9  10
ATOM     10  O   UNL     1      -6.030   3.836  23.315  0.00  0.00    +0.000 OA
BRANCH  10  14
ATOM     11  C   UNL     1      -2.019   4.508  23.993  0.00  0.00    +0.000 A 
ATOM     12  C   UNL     1      -2.966   4.469  25.035  0.00  0.00    +0.000 A 
ATOM     13  C   UNL     1      -4.290   4.253  24.804  0.00  0.00    +0.000 A 
ATOM     14  C   UNL     1      -4.686   4.018  23.513  0.00  0.00    +0.000 A 
ATOM     15  C   UNL     1      -3.810   4.032  22.470  0.00  0.00    +0.000 A 
ATOM     16  C   UNL     1      -2.489   4.260  22.682  0.00  0.00    +0.000 A 
BRANCH  11  18
ATOM     17  C   UNL     1       0.020   3.633  25.032  0.00  0.00    +0.000 C 
ATOM     18  C   UNL     1      -0.550   4.771  24.214  0.00  0.00    +0.000 C 
ATOM     19  C   UNL     1       0.087   4.767  22.857  0.00  0.00    +0.000 C 
BRANCH  18  20
ATOM     20  C   UNL     1      -0.248   6.128  24.888  0.00  0.00    +0.000 C 
ATOM     21  C   UNL     1      -0.442   6.021  26.391  0.00  0.00    +0.000 C 
ATOM     22  C   UNL     1      -1.167   7.193  24.407  0.00  0.00    +0.000 C 
ATOM     23  C   UNL     1       1.185   6.536  24.654  0.00  0.00    +0.000 C 
ENDBRANCH  18  20
ENDBRANCH  11  18
ENDBRANCH  10  14
ENDBRANCH   9  10
ENDBRANCH   8   9
ENDBRANCH   7   8
ENDBRANCH   6   7
ENDBRANCH   5   6
ENDBRANCH   4   5
ENDBRANCH   3   4
ENDBRANCH   2   3
ENDBRANCH   1   2
BRANCH   1  24
ATOM     24  C   UNL     1     -10.964   7.691  19.827  0.00  0.00    +0.000 C 
BRANCH  24  25
ATOM     25  C   UNL     1     -11.203   6.199  19.773  0.00  0.00    +0.000 C 
BRANCH  25  26
ATOM     26  O   UNL     1     -10.909   5.689  18.466  0.00  0.00    +0.000 OA
BRANCH  26  27
ATOM     27  C   UNL     1     -10.134   6.588  17.683  0.00  0.00    +0.000 C 
BRANCH  27  28
ATOM     28  C   UNL     1      -9.109   5.854  16.834  0.00  0.00    +0.000 C 
BRANCH  28  29
ATOM     29  O   UNL     1      -9.697   5.339  15.642  0.00  0.00    +0.000 OA
BRANCH  29  30
ATOM     30  C   UNL     1      -9.875   3.958  15.611  0.00  0.00    +0.000 C 
BRANCH  30  31
ATOM     31  C   UNL     1     -10.981   3.569  14.660  0.00  0.00    +0.000 C 
BRANCH  31  32
ATOM     32  O   UNL     1     -11.529   2.302  14.966  0.00  0.00    +0.000 OA
BRANCH  32  33
ATOM     33  C   UNL     1     -12.916   2.147  14.667  0.00  0.00    +0.000 C 
BRANCH  33  34
ATOM     34  C   UNL     1     -13.185   0.768  14.121  0.00  0.00    +0.000 C 
BRANCH  34  35
ATOM     35  O   UNL     1     -14.389   0.718  13.395  0.00  0.00    +0.000 OA
BRANCH  35  36
ATOM     36  C   UNL     1     -14.549   1.706  12.431  0.00  0.00    +0.000 C 
BRANCH  36  37
ATOM     37  C   UNL     1     -16.014   2.034  12.253  0.00  0.00    +0.000 C 
BRANCH  37  38
ATOM     38  O   UNL     1     -16.299   2.467  10.905  0.00  0.00    +0.000 OA
BRANCH  38  39
ATOM     39  C   UNL     1     -15.128   2.807  10.158  0.00  0.00    +0.000 C 
BRANCH  39  40
ATOM     40  C   UNL     1     -15.468   3.398   8.809  0.00  0.00    +0.000 C 
BRANCH  40  41
ATOM     41  O   UNL     1     -15.550   2.417   7.785  0.00  0.00    +0.000 OA
BRANCH  41  42
ATOM     42  C   UNL     1     -14.532   2.525   6.789  0.00  0.00    +0.000 C 
BRANCH  42  44
ATOM     43  O   UNL     1     -14.246   4.688   5.824  0.00  0.00    +0.000 OA
ATOM     44  C   UNL     1     -13.820   3.862   6.878  0.00  0.00    +0.000 C 
ENDBRANCH  42  44
ENDBRANCH  41  42
ENDBRANCH  40  41
ENDBRANCH  39  40
ENDBRANCH  38  39
ENDBRANCH  37  38
ENDBRANCH  36  37
ENDBRANCH  35  36
ENDBRANCH  34  35
ENDBRANCH  33  34
ENDBRANCH  32  33
ENDBRANCH  31  32
ENDBRANCH  30  31
ENDBRANCH  29  30
ENDBRANCH  28  29
ENDBRANCH  27  28
ENDBRANCH  26  27
ENDBRANCH  25  26
ENDBRANCH  24  25
ENDBRANCH   1  24
TORSDOF 32
BEGIN_RES LEU A  10
REMARK  2 active torsions:
REMARK  status: ('A' for Active; 'I' for Inactive)
REMARK    1  A    between atoms: CA   and  CB  
REMARK    2  A    between atoms: CB   and  CG  
ROOT
ATOM      1  CA  LEU A  10     -10.775  -4.871   5.898  1.00 25.14     0.177 C 
ENDROOT
BRANCH   1   2
ATOM      2  CB  LEU A  10     -12.191  -4.387   6.226  1.00 17.87     0.038 C 
BRANCH   2   3
ATOM      3  CG  LEU A  10     -12.432  -2.901   5.951  1.00 24.95    -0.020 C 
ATOM      4  CD2 LEU A  10     -13.674  -2.471   6.655  1.00 26.38     0.009 C 
ATOM      5  CD1 LEU A  10     -12.542  -2.636   4.459  1.00 28.12     0.009 C 
ENDBRANCH   2   3
ENDBRANCH   1   2
END_RES LEU A  10
BEGIN_RES CYS A  12
REMARK  2 active torsions:
REMARK  status: ('A' for Active; 'I' for Inactive)
REMARK    3  A    between atoms: CA   and  CB  
REMARK    4  A    between atoms: CB   and  SG  
ROOT
ATOM      6  CA  CYS A  12      -8.555   0.470   8.750  1.00 23.16     0.185 C 
ENDROOT
BRANCH   6   7
ATOM      7  CB  CYS A  12      -9.828   0.763   9.555  1.00 20.43     0.105 C 
BRANCH   7   8
ATOM      8  SG  CYS A  12     -10.925   2.047   8.878  1.00 24.64    -0.180 SA
ATOM      9  H04 CYS A  12     -11.742   2.491   9.842  1.00 24.64     0.101 HD
ENDBRANCH   7   8
ENDBRANCH   6   7
END_RES CYS A  12
BEGIN_RES GLN A  14
REMARK  3 active torsions:
REMARK  status: ('A' for Active; 'I' for Inactive)
REMARK    5  A    between atoms: CA   and  CB  
REMARK    6  A    between atoms: CB   and  CG  
REMARK    7  A    between atoms: CG   and  CD  
REMARK       I    between atoms: CD   and  NE2 
ROOT
ATOM     10  CA  GLN A  14      -4.645   5.402  11.377  1.00 10.43     0.177 C 
ENDROOT
BRANCH  10  11
ATOM     11  CB  GLN A  14      -5.541   5.549  12.608  1.00 14.45     0.044 C 
BRANCH  11  12
ATOM     12  CG  GLN A  14      -6.799   6.350  12.363  1.00 13.74     0.105 C 
BRANCH  12  13
ATOM     13  CD  GLN A  14      -7.917   5.510  11.795  1.00 16.29     0.215 C 
ATOM     14  NE2 GLN A  14      -8.319   5.813  10.580  1.00  8.57    -0.370 N 
ATOM     15  H06 GLN A  14      -9.062   5.284  10.147  1.00  8.57     0.159 HD
ATOM     16  H07 GLN A  14      -7.883   6.574  10.079  1.00  8.57     0.159 HD
ATOM     17  OE1 GLN A  14      -8.410   4.598  12.440  1.00 23.55    -0.274 OA
ENDBRANCH  12  13
ENDBRANCH  11  12
ENDBRANCH  10  11
END_RES GLN A  14
BEGIN_RES SER A  16
REMARK  2 active torsions:
REMARK  status: ('A' for Active; 'I' for Inactive)
REMARK    8  A    between atoms: CA   and  CB  
REMARK    9  A    between atoms: CB   and  OG  
ROOT
ATOM     18  CA  SER A  16      -1.305  10.019  14.282  1.00  2.34     0.200 C 
ENDROOT
BRANCH  18  19
ATOM     19  CB  SER A  16      -2.242   9.935  15.479  1.00  3.12     0.199 C 
BRANCH  19  20
ATOM     20  OG  SER A  16      -1.942   8.791  16.260  1.00  1.00    -0.398 OA
ATOM     21  H04 SER A  16      -1.305   9.025  16.938  1.00  1.00     0.209 HD
ENDBRANCH  19  20
ENDBRANCH  18  19
END_RES SER A  16
BEGIN_RES LEU A  32
REMARK  2 active torsions:
REMARK  status: ('A' for Active; 'I' for Inactive)
REMARK   10  A    between atoms: CA   and  CB  
REMARK   11  A    between atoms: CB   and  CG  
ROOT
ATOM     22  CA  LEU A  32     -10.272  -4.106   1.587  1.00 16.16     0.177 C 
ENDROOT
BRANCH  22  23
ATOM     23  CB  LEU A  32     -11.613  -3.858   0.880  1.00 12.35     0.038 C 
BRANCH  23  24
ATOM     24  CG  LEU A  32     -12.499  -5.120   0.871  1.00  9.77    -0.020 C 
ATOM     25  CD1 LEU A  32     -13.036  -5.395   2.255  1.00  4.35     0.009 C 
ATOM     26  CD2 LEU A  32     -13.643  -4.966  -0.097  1.00 10.60     0.009 C 
ENDBRANCH  23  24
ENDBRANCH  22  23
END_RES LEU A  32
BEGIN_RES HIS A  38
REMARK  2 active torsions:
REMARK  status: ('A' for Active; 'I' for Inactive)
REMARK   12  A    between atoms: CA   and  CB  
REMARK   13  A    between atoms: CB   and  CG  
ROOT
ATOM     27  CA  HIS A  38     -10.959   4.941   1.621  1.00 16.94     0.182 C 
ENDROOT
BRANCH  27  28
ATOM     28  CB  HIS A  38     -11.810   4.840   2.881  1.00 15.47     0.095 C 
BRANCH  28  29
ATOM     29  CG  HIS A  38     -13.032   3.995   2.718  1.00 18.62     0.053 A 
ATOM     30  CD2 HIS A  38     -14.186   4.223   2.047  1.00 15.06     0.116 A 
ATOM     31  NE2 HIS A  38     -14.966   3.105   2.197  1.00 18.12    -0.359 N 
ATOM     32  CE1 HIS A  38     -14.317   2.223   2.933  1.00 14.78     0.207 A 
ATOM     33  H06 HIS A  38     -15.889   2.977   1.807  1.00 18.12     0.166 HD
ATOM     34  ND1 HIS A  38     -13.148   2.735   3.262  1.00 16.58    -0.247 NA
ENDBRANCH  28  29
ENDBRANCH  27  28
END_RES HIS A  38
BEGIN_RES TRP A  63
REMARK  2 active torsions:
REMARK  status: ('A' for Active; 'I' for Inactive)
REMARK   14  A    between atoms: CA   and  CB  
REMARK   15  A    between atoms: CB   and  CG  
ROOT
ATOM     35  CA  TRP A  63     -22.437   6.257   6.543  1.00 27.04     0.181 C 
ENDROOT
BRANCH  35  36
ATOM     36  CB  TRP A  63     -22.360   6.642   5.068  1.00 31.37     0.075 C 
BRANCH  36  37
ATOM     37  CG  TRP A  63     -20.955   6.714   4.509  1.00 34.37    -0.028 A 
ATOM     38  CD2 TRP A  63     -19.898   5.761   4.691  1.00 33.79    -0.002 A 
ATOM     39  CE3 TRP A  63     -19.773   4.575   5.418  1.00 32.99     0.014 A 
ATOM     40  CE2 TRP A  63     -18.797   6.209   3.930  1.00 35.84     0.042 A 
ATOM     41  CZ3 TRP A  63     -18.572   3.883   5.366  1.00 32.93     0.001 A 
ATOM     42  CH2 TRP A  63     -17.494   4.355   4.600  1.00 39.24     0.002 A 
ATOM     43  CZ2 TRP A  63     -17.588   5.513   3.876  1.00 37.99     0.030 A 
ATOM     44  NE1 TRP A  63     -19.169   7.375   3.320  1.00 37.98    -0.365 N 
ATOM     45  H06 TRP A  63     -18.588   7.930   2.709  1.00 37.98     0.165 HD
ATOM     46  CD1 TRP A  63     -20.463   7.670   3.676  1.00 38.16     0.096 A 
ENDBRANCH  36  37
ENDBRANCH  35  36
END_RES TRP A  63
BEGIN_RES LEU A  66
REMARK  2 active torsions:
REMARK  status: ('A' for Active; 'I' for Inactive)
REMARK   16  A    between atoms: CA   and  CB  
REMARK   17  A    between atoms: CB   and  CG  
ROOT
ATOM     47  CA  LEU A  66     -20.004   6.489  11.120  1.00 10.90     0.177 C 
ENDROOT
BRANCH  47  48
ATOM     48  CB  LEU A  66     -19.626   5.453  10.069  1.00 13.57     0.038 C 
BRANCH  48  49
ATOM     49  CG  LEU A  66     -19.465   4.008  10.538  1.00  8.73    -0.020 C 
ATOM     50  CD1 LEU A  66     -19.407   3.940  12.042  1.00 14.23     0.009 C 
ATOM     51  CD2 LEU A  66     -20.636   3.207  10.029  1.00  1.92     0.009 C 
ENDBRANCH  48  49
ENDBRANCH  47  48
END_RES LEU A  66
BEGIN_RES PHE A  70
REMARK  2 active torsions:
REMARK  status: ('A' for Active; 'I' for Inactive)
REMARK   18  A    between atoms: CA   and  CB  
REMARK   19  A    between atoms: CB   and  CG  
ROOT
ATOM     52  CA  PHE A  70     -14.974   9.434  13.165  1.00  8.78     0.180 C 
ENDROOT
BRANCH  52  53
ATOM     53  CB  PHE A  70     -14.707   9.132  11.681  1.00  6.33     0.073 C 
BRANCH  53  54
ATOM     54  CG  PHE A  70     -13.990   7.829  11.455  1.00  3.42    -0.056 A 
ATOM     55  CD1 PHE A  70     -13.535   7.068  12.522  1.00 13.88     0.007 A 
ATOM     56  CE1 PHE A  70     -12.824   5.875  12.303  1.00 12.71     0.001 A 
ATOM     57  CZ  PHE A  70     -12.567   5.440  11.003  1.00  4.21     0.000 A 
ATOM     58  CE2 PHE A  70     -13.018   6.188   9.931  1.00  2.83     0.001 A 
ATOM     59  CD2 PHE A  70     -13.727   7.379  10.160  1.00  1.00     0.007 A 
ENDBRANCH  53  54
ENDBRANCH  52  53
END_RES PHE A  70
BEGIN_RES TYR A  73
REMARK  3 active torsions:
REMARK  status: ('A' for Active; 'I' for Inactive)
REMARK   20  A    between atoms: CA   and  CB  
REMARK   21  A    between atoms: CB   and  CG  
REMARK   22  A    between atoms: CZ   and  OH  
ROOT
ATOM     60  CA  TYR A  73     -13.212  10.166  17.260  1.00 12.17     0.180 C 
ENDROOT
BRANCH  60  61
ATOM     61  CB  TYR A  73     -13.301   8.846  16.517  1.00 12.84     0.073 C 
BRANCH  61  62
ATOM     62  CG  TYR A  73     -13.831   7.738  17.358  1.00 15.89    -0.056 A 
ATOM     63  CD1 TYR A  73     -13.856   6.442  16.892  1.00 16.00     0.010 A 
ATOM     64  CE1 TYR A  73     -14.380   5.407  17.666  1.00 13.55     0.037 A 
ATOM     65  CZ  TYR A  73     -14.883   5.688  18.921  1.00 18.13     0.065 A 
ATOM     66  CE2 TYR A  73     -14.869   6.973  19.410  1.00 15.89     0.037 A 
ATOM     67  CD2 TYR A  73     -14.342   7.992  18.626  1.00 21.86     0.010 A 
BRANCH  65  68
ATOM     68  OH  TYR A  73     -15.399   4.683  19.703  1.00 12.12    -0.361 OA
ATOM     69  H08 TYR A  73     -15.757   3.992  19.141  1.00 12.12     0.217 HD
ENDBRANCH  65  68
ENDBRANCH  61  62
ENDBRANCH  60  61
END_RES TYR A  73
BEGIN_RES PHE A  77
REMARK  2 active torsions:
REMARK  status: ('A' for Active; 'I' for Inactive)
REMARK   23  A    between atoms: CA   and  CB  
REMARK   24  A    between atoms: CB   and  CG  
ROOT
ATOM     70  CA  PHE A  77      -8.400  10.581  20.110  1.00 17.17     0.180 C 
ENDROOT
BRANCH  70  71
ATOM     71  CB  PHE A  77      -8.228   9.750  18.851  1.00 10.44     0.073 C 
BRANCH  71  72
ATOM     72  CG  PHE A  77      -7.127   8.740  18.941  1.00  6.07    -0.056 A 
ATOM     73  CD2 PHE A  77      -7.210   7.692  19.829  1.00  9.61     0.007 A 
ATOM     74  CE2 PHE A  77      -6.193   6.749  19.917  1.00  1.00     0.001 A 
ATOM     75  CZ  PHE A  77      -5.078   6.856  19.103  1.00  1.92     0.000 A 
ATOM     76  CE1 PHE A  77      -4.981   7.897  18.209  1.00  9.25     0.001 A 
ATOM     77  CD1 PHE A  77      -6.007   8.838  18.131  1.00  9.63     0.007 A 
ENDBRANCH  71  72
ENDBRANCH  70  71
END_RES PHE A  77
BEGIN_RES LEU A  96
REMARK  2 active torsions:
REMARK  status: ('A' for Active; 'I' for Inactive)
REMARK   25  A    between atoms: CA   and  CB  
REMARK   26  A    between atoms: CB   and  CG  
ROOT
ATOM     78  CA  LEU A  96       0.717   6.481  17.359  1.00 16.08     0.177 C 
ENDROOT
BRANCH  78  79
ATOM     79  CB  LEU A  96      -0.370   7.101  18.230  1.00 18.83     0.038 C 
BRANCH  79  80
ATOM     80  CG  LEU A  96      -0.146   6.942  19.734  1.00 19.03    -0.020 C 
ATOM     81  CD1 LEU A  96       0.680   8.106  20.230  1.00 28.17     0.009 C 
ATOM     82  CD2 LEU A  96      -1.468   6.946  20.467  1.00 22.01     0.009 C 
ENDBRANCH  79  80
ENDBRANCH  78  79
END_RES LEU A  96
BEGIN_RES VAL A  98
REMARK  1 active torsions:
REMARK  status: ('A' for Active; 'I' for Inactive)
REMARK   27  A    between atoms: CA   and  CB  
ROOT
ATOM     83  CA  VAL A  98      -3.928   2.082  14.897  1.00 19.83     0.180 C 
ENDROOT
BRANCH  83  84
ATOM     84  CB  VAL A  98      -5.203   2.807  15.281  1.00 17.87     0.009 C 
ATOM     85  CG2 VAL A  98      -4.889   4.222  15.692  1.00 29.90     0.012 C 
ATOM     86  CG1 VAL A  98      -5.891   2.061  16.404  1.00 14.79     0.012 C 
ENDBRANCH  83  84
END_RES VAL A  98
BEGIN_RES ASN A 112
REMARK  2 active torsions:
REMARK  status: ('A' for Active; 'I' for Inactive)
REMARK   28  A    between atoms: CA   and  CB  
REMARK   29  A    between atoms: CB   and  CG  
REMARK       I    between atoms: CG   and  ND2 
ROOT
ATOM     87  CA  ASN A 112     -11.790  -8.793  14.069  1.00 37.70     0.185 C 
ENDROOT
BRANCH  87  88
ATOM     88  CB  ASN A 112     -12.992  -7.945  14.465  1.00 26.24     0.137 C 
BRANCH  88  89
ATOM     89  CG  ASN A 112     -13.789  -8.542  15.603  1.00 21.77     0.217 C 
ATOM     90  ND2 ASN A 112     -14.915  -9.171  15.265  1.00  9.31    -0.370 N 
ATOM     91  H04 ASN A 112     -15.494  -9.589  15.980  1.00  9.31     0.159 HD
ATOM     92  H05 ASN A 112     -15.190  -9.229  14.295  1.00  9.31     0.159 HD
ATOM     93  OD1 ASN A 112     -13.405  -8.437  16.773  1.00 21.61    -0.274 OA
ENDBRANCH  88  89
ENDBRANCH  87  88
END_RES ASN A 112
BEGIN_RES PHE A 114
REMARK  2 active torsions:
REMARK  status: ('A' for Active; 'I' for Inactive)
REMARK   30  A    between atoms: CA   and  CB  
REMARK   31  A    between atoms: CB   and  CG  
ROOT
ATOM     94  CA  PHE A 114      -7.754  -3.619  17.012  1.00 26.06     0.180 C 
ENDROOT
BRANCH  94  95
ATOM     95  CB  PHE A 114      -8.890  -3.080  17.867  1.00 19.95     0.073 C 
BRANCH  95  96
ATOM     96  CG  PHE A 114      -8.769  -1.620  18.160  1.00 17.65    -0.056 A 
ATOM     97  CD1 PHE A 114      -8.488  -1.172  19.448  1.00 13.01     0.007 A 
ATOM     98  CE1 PHE A 114      -8.405   0.186  19.727  1.00  6.74     0.001 A 
ATOM     99  CZ  PHE A 114      -8.600   1.119  18.713  1.00  6.27     0.000 A 
ATOM    100  CE2 PHE A 114      -8.879   0.686  17.428  1.00 17.36     0.001 A 
ATOM    101  CD2 PHE A 114      -8.963  -0.684  17.154  1.00 18.39     0.007 A 
ENDBRANCH  95  96
ENDBRANCH  94  95
END_RES PHE A 114
BEGIN_RES VAL A 116
REMARK  1 active torsions:
REMARK  status: ('A' for Active; 'I' for Inactive)
REMARK   32  A    between atoms: CA   and  CB  
ROOT
ATOM    102  CA  VAL A 116      -2.467   0.283  18.565  1.00 13.48     0.180 C 
ENDROOT
BRANCH 102 103
ATOM    103  CB  VAL A 116      -3.101   1.238  19.599  1.00 20.86     0.009 C 
ATOM    104  CG1 VAL A 116      -3.067   2.671  19.061  1.00 25.01     0.012 C 
ATOM    105  CG2 VAL A 116      -4.508   0.805  19.940  1.00 25.34     0.012 C 
ENDBRANCH 102 103
END_RES VAL A 116
BEGIN_RES ILE A 123
REMARK  2 active torsions:
REMARK  status: ('A' for Active; 'I' for Inactive)
REMARK   33  A    between atoms: CA   and  CB  
REMARK   34  A    between atoms: CB   and  CG1 
ROOT
ATOM    106  CA  ILE A 123       1.557  -1.626  23.222  1.00 15.07     0.180 C 
ENDROOT
BRANCH 106 107
ATOM    107  CB  ILE A 123       1.697  -0.112  23.461  1.00 14.41     0.013 C 
ATOM    108  CG2 ILE A 123       3.087   0.202  23.985  1.00 18.35     0.012 C 
BRANCH 107 109
ATOM    109  CG1 ILE A 123       1.434   0.655  22.168  1.00 15.23     0.002 C 
ATOM    110  CD1 ILE A 123       0.076   1.313  22.119  1.00 14.67     0.005 C 
ENDBRANCH 107 109
ENDBRANCH 106 107
END_RES ILE A 123
BEGIN_RES LEU A 124
REMARK  2 active torsions:
REMARK  status: ('A' for Active; 'I' for Inactive)
REMARK   35  A    between atoms: CA   and  CB  
REMARK   36  A    between atoms: CB   and  CG  
ROOT
ATOM    111  CA  LEU A 124      -2.057  -2.686  23.524  1.00 11.86     0.177 C 
ENDROOT
BRANCH 111 112
ATOM    112  CB  LEU A 124      -2.698  -1.652  24.429  1.00 14.60     0.038 C 
BRANCH 112 113
ATOM    113  CG  LEU A 124      -2.636  -0.254  23.833  1.00 16.19    -0.020 C 
ATOM    114  CD1 LEU A 124      -4.058   0.187  23.437  1.00 22.07     0.009 C 
ATOM    115  CD2 LEU A 124      -2.012   0.690  24.830  1.00  9.12     0.009 C 
ENDBRANCH 112 113
ENDBRANCH 111 112
END_RES LEU A 124
BEGIN_RES PHE A 126
REMARK  2 active torsions:
REMARK  status: ('A' for Active; 'I' for Inactive)
REMARK   37  A    between atoms: CA   and  CB  
REMARK   38  A    between atoms: CB   and  CG  
ROOT
ATOM    116  CA  PHE A 126      -8.784  -4.792  22.233  1.00 23.15     0.180 C 
ENDROOT
BRANCH 116 117
ATOM    117  CB  PHE A 126      -9.823  -4.011  21.461  1.00 20.65     0.073 C 
BRANCH 117 118
ATOM    118  CG  PHE A 126     -10.942  -3.529  22.300  1.00 23.65    -0.056 A 
ATOM    119  CD2 PHE A 126     -12.206  -4.076  22.171  1.00 36.63     0.007 A 
ATOM    120  CE2 PHE A 126     -13.265  -3.620  22.968  1.00 36.27     0.001 A 
ATOM    121  CZ  PHE A 126     -13.049  -2.610  23.894  1.00 18.06     0.000 A 
ATOM    122  CE1 PHE A 126     -11.788  -2.064  24.026  1.00  5.50     0.001 A 
ATOM    123  CD1 PHE A 126     -10.739  -2.526  23.232  1.00 15.29     0.007 A 
ENDBRANCH 117 118
ENDBRANCH 116 117
END_RES PHE A 126
BEGIN_RES TRP A 131
REMARK  2 active torsions:
REMARK  status: ('A' for Active; 'I' for Inactive)
REMARK   39  A    between atoms: CA   and  CB  
REMARK   40  A    between atoms: CB   and  CG  
ROOT
ATOM    124  CA  TRP A 131      -8.096  -3.335  26.542  1.00 14.52     0.181 C 
ENDROOT
BRANCH 124 125
ATOM    125  CB  TRP A 131      -7.651  -1.877  26.607  1.00 13.06     0.075 C 
BRANCH 125 126
ATOM    126  CG  TRP A 131      -8.019  -1.060  25.388  1.00 16.97    -0.028 A 
ATOM    127  CD2 TRP A 131      -9.081  -0.108  25.290  1.00 11.34    -0.002 A 
ATOM    128  CE2 TRP A 131      -9.058   0.418  23.983  1.00  5.87     0.042 A 
ATOM    129  CE3 TRP A 131     -10.053   0.351  26.186  1.00  3.80     0.014 A 
ATOM    130  CZ2 TRP A 131      -9.969   1.383  23.550  1.00  1.35     0.030 A 
ATOM    131  NE1 TRP A 131      -8.030  -0.187  23.314  1.00 13.90    -0.365 N 
ATOM    132  CH2 TRP A 131     -10.911   1.816  24.450  1.00  1.00     0.002 A 
ATOM    133  CZ3 TRP A 131     -10.959   1.306  25.761  1.00  1.00     0.001 A 
ATOM    134  CD1 TRP A 131      -7.409  -1.074  24.163  1.00 17.22     0.096 A 
ATOM    135  H07 TRP A 131      -7.769  -0.012  22.355  1.00 13.90     0.165 HD
ENDBRANCH 125 126
ENDBRANCH 124 125
END_RES TRP A 131
BEGIN_RES LEU A 148
REMARK  2 active torsions:
REMARK  status: ('A' for Active; 'I' for Inactive)
REMARK   41  A    between atoms: CA   and  CB  
REMARK   42  A    between atoms: CB   and  CG  
ROOT
ATOM    136  CA  LEU A 148      -9.018   3.259  29.295  1.00 16.99     0.177 C 
ENDROOT
BRANCH 136 137
ATOM    137  CB  LEU A 148      -8.166   2.574  28.236  1.00  6.39     0.038 C 
BRANCH 137 138
ATOM    138  CG  LEU A 148      -7.524   3.366  27.116  1.00  1.00    -0.020 C 
ATOM    139  CD2 LEU A 148      -8.574   4.082  26.316  1.00  1.00     0.009 C 
ATOM    140  CD1 LEU A 148      -6.747   2.404  26.236  1.00  2.71     0.009 C 
ENDBRANCH 137 138
ENDBRANCH 136 137
END_RES LEU A 148
BEGIN_RES THR A 154
REMARK  2 active torsions:
REMARK  status: ('A' for Active; 'I' for Inactive)
REMARK   43  A    between atoms: CA   and  CB  
REMARK   44  A    between atoms: CB   and  OG1 
ROOT
ATOM    141  CA  THR A 154     -15.990   3.959  24.426  1.00 20.45     0.205 C 
ENDROOT
BRANCH 141 142
ATOM    142  CB  THR A 154     -14.777   4.829  24.694  1.00 16.79     0.146 C 
ATOM    143  CG2 THR A 154     -13.582   4.316  23.913  1.00 20.24     0.042 C 
BRANCH 142 144
ATOM    144  OG1 THR A 154     -15.064   6.169  24.274  1.00 18.84    -0.393 OA
ATOM    145  H06 THR A 154     -14.404   6.454  23.639  1.00 18.84     0.210 HD
ENDBRANCH 142 144
ENDBRANCH 141 142
END_RES THR A 154
BEGIN_RES VAL A 158
REMARK  1 active torsions:
REMARK  status: ('A' for Active; 'I' for Inactive)
REMARK   45  A    between atoms: CA   and  CB  
ROOT
ATOM    146  CA  VAL A 158     -15.487  -0.189  19.892  1.00 15.49     0.180 C 
ENDROOT
BRANCH 146 147
ATOM    147  CB  VAL A 158     -14.291  -0.273  20.822  1.00  6.52     0.009 C 
ATOM    148  CG1 VAL A 158     -13.211  -1.152  20.234  1.00  1.00     0.012 C 
ATOM    149  CG2 VAL A 158     -13.773   1.111  21.065  1.00  5.99     0.012 C 
ENDBRANCH 146 147
END_RES VAL A 158
BEGIN_RES LEU A 161
REMARK  2 active torsions:
REMARK  status: ('A' for Active; 'I' for Inactive)
REMARK   46  A    between atoms: CA   and  CB  
REMARK   47  A    between atoms: CB   and  CG  
ROOT
ATOM    150  CA  LEU A 161     -18.031  -1.858  15.935  1.00 13.31     0.177 C 
ENDROOT
BRANCH 150 151
ATOM    151  CB  LEU A 161     -17.046  -0.706  16.001  1.00 14.13     0.038 C 
BRANCH 151 152
ATOM    152  CG  LEU A 161     -17.450   0.569  15.272  1.00 19.39    -0.020 C 
ATOM    153  CD2 LEU A 161     -16.731   1.758  15.862  1.00 27.75     0.009 C 
ATOM    154  CD1 LEU A 161     -18.938   0.752  15.398  1.00 18.59     0.009 C 
ENDBRANCH 151 152
ENDBRANCH 150 151
END_RES LEU A 161
BEGIN_RES GLN A 168
REMARK  3 active torsions:
REMARK  status: ('A' for Active; 'I' for Inactive)
REMARK   48  A    between atoms: CA   and  CB  
REMARK   49  A    between atoms: CB   and  CG  
REMARK   50  A    between atoms: CG   and  CD  
REMARK       I    between atoms: CD   and  NE2 
ROOT
ATOM    155  CA  GLN A 168     -22.035  -6.020   8.155  1.00 30.94     0.177 C 
ENDROOT
BRANCH 155 156
ATOM    156  CB  GLN A 168     -23.054  -5.218   8.946  1.00 41.76     0.044 C 
BRANCH 156 157
ATOM    157  CG  GLN A 168     -24.434  -5.817   8.974  1.00 61.20     0.105 C 
BRANCH 157 158
ATOM    158  CD  GLN A 168     -24.774  -6.392  10.335  1.00 75.49     0.215 C 
ATOM    159  NE2 GLN A 168     -24.067  -5.924  11.366  1.00 85.00    -0.370 N 
ATOM    160  H06 GLN A 168     -24.245  -6.270  12.298  1.00 85.00     0.159 HD
ATOM    161  H07 GLN A 168     -23.354  -5.225  11.213  1.00 85.00     0.159 HD
ATOM    162  OE1 GLN A 168     -25.657  -7.252  10.463  1.00 73.64    -0.274 OA
ENDBRANCH 157 158
ENDBRANCH 156 157
ENDBRANCH 155 156
END_RES GLN A 168
ENDMDL
