human_CD1d_DDM_pred.rank_0
  PyMOL3.1          3D                             0

 35 36  0  0  0  0  0  0  0  0999 V2000
   -9.2240   17.3050   14.1470 C   0  0  0  0  0  0  0  0  0  0  0  0
    2.5060   20.7720   11.2500 O   0  0  0  0  0  0  0  0  0  0  0  0
   -8.7040   17.8920   12.8570 C   0  0  0  0  0  0  0  0  0  0  0  0
    2.5360   22.5560   12.6530 O   0  0  0  0  0  0  0  0  0  0  0  0
   -7.2890   18.3550   13.0180 C   0  0  0  0  0  0  0  0  0  0  0  0
    1.5180   23.3690   15.2930 O   0  0  0  0  0  0  0  0  0  0  0  0
   -6.6570   18.6850   11.6770 C   0  0  0  0  0  0  0  0  0  0  0  0
    5.1540   24.8600   13.8450 O   0  0  0  0  0  0  0  0  0  0  0  0
   -5.1630   18.8010   11.8380 C   0  0  0  0  0  0  0  0  0  0  0  0
    7.3220   25.2420   14.6610 O   0  0  0  0  0  0  0  0  0  0  0  0
   -4.5180   19.3930   10.6400 C   0  0  0  0  0  0  0  0  0  0  0  0
    9.2580   27.1300   15.1300 O   0  0  0  0  0  0  0  0  0  0  0  0
   -3.0320   19.1750   10.6970 C   0  0  0  0  0  0  0  0  0  0  0  0
    6.1080   28.6820   15.1670 O   0  0  0  0  0  0  0  0  0  0  0  0
   -2.3620   19.6760    9.4290 C   0  0  0  0  0  0  0  0  0  0  0  0
    4.7010   27.1820   17.1650 O   0  0  0  0  0  0  0  0  0  0  0  0
   -0.8630   19.4650    9.5210 C   0  0  0  0  0  0  0  0  0  0  0  0
    4.3390   24.4460   16.6590 O   0  0  0  0  0  0  0  0  0  0  0  0
   -0.1260   20.7860    9.8410 C   0  0  0  0  0  0  0  0  0  0  0  0
    6.6430   23.0060   12.2630 O   0  0  0  0  0  0  0  0  0  0  0  0
    0.0770   20.9230   11.3490 C   0  0  0  0  0  0  0  0  0  0  0  0
    5.3520   20.6020   11.4560 O   0  0  0  0  0  0  0  0  0  0  0  0
    1.3340   20.1310   11.7610 C   0  0  0  0  0  0  0  0  0  0  0  0
    3.2350   21.4010   12.2570 C   0  0  0  0  0  0  0  0  0  0  0  0
    4.6280   21.7760   11.7160 C   0  0  0  0  0  0  0  0  0  0  0  0
    5.3870   22.6290   12.7640 C   0  0  0  0  0  0  0  0  0  0  0  0
    4.5260   23.8440   13.0990 C   0  0  0  0  0  0  0  0  0  0  0  0
    3.2830   23.2310   13.7600 C   0  0  0  0  0  0  0  0  0  0  0  0
    2.3120   24.1960   14.3770 C   0  0  0  0  0  0  0  0  0  0  0  0
    6.0760   24.5790   14.9330 C   0  0  0  0  0  0  0  0  0  0  0  0
    5.5310   25.1200   16.2620 C   0  0  0  0  0  0  0  0  0  0  0  0
    5.1840   26.5970   15.9870 C   0  0  0  0  0  0  0  0  0  0  0  0
    6.4790   27.3420   15.5260 C   0  0  0  0  0  0  0  0  0  0  0  0
    7.1140   26.6450   14.3170 C   0  0  0  0  0  0  0  0  0  0  0  0
    8.4600   27.2110   13.9880 C   0  0  0  0  0  0  0  0  0  0  0  0
  1  3  1  0  0  0  0
  2 24  1  0  0  0  0
  3  5  1  0  0  0  0
  5  7  1  0  0  0  0
  7  9  1  0  0  0  0
  8 30  1  0  0  0  0
  9 11  1  0  0  0  0
 11 13  1  0  0  0  0
 13 15  1  0  0  0  0
 15 17  1  0  0  0  0
 17 19  1  0  0  0  0
 19 21  1  0  0  0  0
 21 23  1  0  0  0  0
  2 23  1  0  0  0  0
  4 24  1  0  0  0  0
 24 25  1  0  0  0  0
 22 25  1  0  0  0  0
 25 26  1  0  0  0  0
 20 26  1  0  0  0  0
 26 27  1  0  0  0  0
  8 27  1  0  0  0  0
 27 28  1  0  0  0  0
  4 28  1  0  0  0  0
 28 29  1  0  0  0  0
  6 29  1  0  0  0  0
 10 30  1  0  0  0  0
 30 31  1  0  0  0  0
 18 31  1  0  0  0  0
 31 32  1  0  0  0  0
 16 32  1  0  0  0  0
 32 33  1  0  0  0  0
 14 33  1  0  0  0  0
 33 34  1  0  0  0  0
 10 34  1  0  0  0  0
 34 35  1  0  0  0  0
 12 35  1  0  0  0  0
M  END
$$$$
