MODEL 1
REMARK VINA RESULT:      -7.2      0.000      0.000
REMARK  Name = human_CD1d_Tween20_pred.rank_0
REMARK  75 active torsions:
REMARK  status: ('A' for Active; 'I' for Inactive)
REMARK    1  A    between atoms: C_1  and  C_3
REMARK    2  A    between atoms: C_3  and  O_4
REMARK    3  A    between atoms: O_4  and  C_5
REMARK    4  A    between atoms: C_5  and  C_7
REMARK    5  A    between atoms: O_6  and  C_7
REMARK    6  A    between atoms: O_6  and  C_9
REMARK    7  A    between atoms: O_8  and  C_11
REMARK    8  A    between atoms: O_8  and  C_13
REMARK    9  A    between atoms: C_9  and  C_11
REMARK   10  A    between atoms: O_10  and  C_15
REMARK   11  A    between atoms: O_10  and  C_17
REMARK   12  A    between atoms: O_12  and  C_19
REMARK   13  A    between atoms: O_12  and  C_21
REMARK   14  A    between atoms: C_13  and  C_15
REMARK   15  A    between atoms: O_14  and  C_23
REMARK   16  A    between atoms: O_14  and  C_25
REMARK   17  A    between atoms: O_16  and  C_27
REMARK   18  A    between atoms: O_16  and  C_29
REMARK   19  A    between atoms: C_17  and  C_19
REMARK   20  A    between atoms: O_18  and  C_31
REMARK   21  A    between atoms: O_18  and  C_33
REMARK   22  A    between atoms: O_20  and  C_35
REMARK   23  A    between atoms: O_20  and  C_37
REMARK   24  A    between atoms: C_21  and  C_23
REMARK   25  A    between atoms: C_21  and  C_61
REMARK   26  A    between atoms: O_22  and  C_39
REMARK   27  A    between atoms: O_22  and  C_41
REMARK   28  A    between atoms: O_24  and  C_43
REMARK   29  A    between atoms: O_24  and  C_45
REMARK   30  A    between atoms: C_25  and  C_27
REMARK   31  A    between atoms: O_28  and  C_63
REMARK   32  A    between atoms: O_28  and  C_64
REMARK   33  A    between atoms: C_29  and  C_31
REMARK   34  A    between atoms: O_30  and  C_65
REMARK   35  A    between atoms: O_30  and  C_66
REMARK   36  A    between atoms: O_32  and  C_67
REMARK   37  A    between atoms: O_32  and  C_68
REMARK   38  A    between atoms: C_33  and  C_35
REMARK   39  A    between atoms: O_34  and  C_69
REMARK   40  A    between atoms: O_34  and  C_70
REMARK   41  A    between atoms: O_36  and  C_71
REMARK   42  A    between atoms: O_36  and  C_72
REMARK   43  A    between atoms: C_37  and  C_39
REMARK   44  A    between atoms: O_40  and  C_74
REMARK   45  A    between atoms: O_40  and  C_75
REMARK   46  A    between atoms: C_41  and  C_43
REMARK   47  A    between atoms: O_42  and  C_76
REMARK   48  A    between atoms: O_42  and  C_77
REMARK   49  A    between atoms: O_44  and  C_78
REMARK   50  A    between atoms: O_44  and  C_79
REMARK   51  A    between atoms: C_45  and  C_47
REMARK   52  A    between atoms: O_46  and  C_80
REMARK   53  A    between atoms: O_46  and  C_81
REMARK   54  A    between atoms: C_47  and  C_49
REMARK   55  A    between atoms: O_48  and  C_82
REMARK   56  A    between atoms: O_48  and  C_83
REMARK   57  A    between atoms: C_49  and  C_51
REMARK   58  A    between atoms: C_51  and  C_53
REMARK   59  A    between atoms: C_53  and  C_54
REMARK   60  A    between atoms: C_54  and  C_55
REMARK   61  A    between atoms: C_55  and  C_56
REMARK   62  A    between atoms: C_56  and  C_57
REMARK   63  A    between atoms: C_57  and  C_58
REMARK   64  A    between atoms: C_58  and  C_59
REMARK   65  A    between atoms: C_61  and  C_62
REMARK   66  A    between atoms: C_64  and  C_65
REMARK   67  A    between atoms: C_66  and  C_67
REMARK   68  A    between atoms: C_68  and  C_69
REMARK   69  A    between atoms: C_70  and  C_71
REMARK   70  A    between atoms: C_72  and  C_73
REMARK   71  A    between atoms: C_75  and  C_76
REMARK   72  A    between atoms: C_77  and  C_78
REMARK   73  A    between atoms: C_79  and  C_80
REMARK   74  A    between atoms: C_81  and  C_82
REMARK   75  A    between atoms: C_83  and  C_84
REMARK                            x       y       z     vdW  Elec       q    Type
REMARK                         _______ _______ _______ _____ _____    ______ ____
ROOT
ATOM      1  C   UNL     1      -8.983   3.176  12.650  0.00  0.00    +0.000 C 
ENDROOT
BRANCH   1   2
ATOM      2  C   UNL     1      -8.857   4.099  13.925  0.00  0.00    +0.000 C 
BRANCH   2   4
ATOM      3  O   UNL     1      -9.558   6.498  13.912  0.00  0.00    +0.000 OA
ATOM      4  C   UNL     1     -10.016   5.050  13.999  0.00  0.00    +0.000 C 
ATOM      5  C   UNL     1     -10.584   4.978  15.418  0.00  0.00    +0.000 C 
ATOM      6  C   UNL     1     -10.305   6.396  15.920  0.00  0.00    +0.000 C 
ATOM      7  C   UNL     1     -10.230   7.313  14.732  0.00  0.00    +0.000 C 
BRANCH   6   8
ATOM      8  O   UNL     1      -9.105   6.293  16.685  0.00  0.00    +0.000 OA
BRANCH   8   9
ATOM      9  C   UNL     1      -9.304   5.995  18.054  0.00  0.00    +0.000 C 
BRANCH   9  10
ATOM     10  C   UNL     1     -10.421   6.845  18.577  0.00  0.00    +0.000 C 
BRANCH  10  11
ATOM     11  O   UNL     1     -10.253   7.049  19.959  0.00  0.00    +0.000 OA
BRANCH  11  12
ATOM     12  C   UNL     1     -11.054   8.103  20.448  0.00  0.00    +0.000 C 
BRANCH  12  13
ATOM     13  C   UNL     1     -11.194   7.945  21.948  0.00  0.00    +0.000 C 
BRANCH  13  14
ATOM     14  O   UNL     1     -12.532   7.873  22.306  0.00  0.00    +0.000 OA
BRANCH  14  15
ATOM     15  C   UNL     1     -12.892   8.704  23.338  0.00  0.00    +0.000 C 
BRANCH  15  16
ATOM     16  C   UNL     1     -14.246   9.280  23.071  0.00  0.00    +0.000 C 
BRANCH  16  17
ATOM     17  O   UNL     1     -15.179   8.265  22.753  0.00  0.00    +0.000 OA
BRANCH  17  18
ATOM     18  C   UNL     1     -16.306   8.786  22.065  0.00  0.00    +0.000 C 
BRANCH  18  19
ATOM     19  C   UNL     1     -15.899   9.955  21.200  0.00  0.00    +0.000 C 
BRANCH  19  20
ATOM     20  O   UNL     1     -16.493   9.825  19.934  0.00  0.00    +0.000 OA
BRANCH  20  21
ATOM     21  C   UNL     1     -17.527   8.853  19.985  0.00  0.00    +0.000 C 
BRANCH  21  23
ATOM     22  O   UNL     1     -19.174   8.029  18.416  0.00  0.00    +0.000 OA
ATOM     23  C   UNL     1     -18.620   9.242  19.058  0.00  0.00    +0.000 C 
ENDBRANCH  21  23
ENDBRANCH  20  21
ENDBRANCH  19  20
ENDBRANCH  18  19
ENDBRANCH  17  18
ENDBRANCH  16  17
ENDBRANCH  15  16
ENDBRANCH  14  15
ENDBRANCH  13  14
ENDBRANCH  12  13
ENDBRANCH  11  12
ENDBRANCH  10  11
ENDBRANCH   9  10
ENDBRANCH   8   9
ENDBRANCH   6   8
BRANCH   5  24
ATOM     24  O   UNL     1     -11.973   4.807  15.339  0.00  0.00    +0.000 OA
BRANCH  24  25
ATOM     25  C   UNL     1     -12.328   3.513  14.978  0.00  0.00    +0.000 C 
BRANCH  25  26
ATOM     26  C   UNL     1     -13.847   3.318  15.193  0.00  0.00    +0.000 C 
BRANCH  26  27
ATOM     27  O   UNL     1     -14.469   3.277  13.914  0.00  0.00    +0.000 OA
BRANCH  27  28
ATOM     28  C   UNL     1     -15.622   4.033  13.901  0.00  0.00    +0.000 C 
BRANCH  28  29
ATOM     29  C   UNL     1     -16.025   4.276  12.446  0.00  0.00    +0.000 C 
BRANCH  29  30
ATOM     30  O   UNL     1     -15.293   3.411  11.651  0.00  0.00    +0.000 OA
BRANCH  30  31
ATOM     31  C   UNL     1     -15.641   3.496  10.283  0.00  0.00    +0.000 C 
BRANCH  31  32
ATOM     32  C   UNL     1     -14.820   2.529   9.528  0.00  0.00    +0.000 C 
BRANCH  32  33
ATOM     33  O   UNL     1     -15.660   1.467   9.125  0.00  0.00    +0.000 OA
BRANCH  33  34
ATOM     34  C   UNL     1     -14.906   0.442   8.574  0.00  0.00    +0.000 C 
BRANCH  34  35
ATOM     35  C   UNL     1     -14.965  -0.766   9.507  0.00  0.00    +0.000 C 
BRANCH  35  36
ATOM     36  O   UNL     1     -15.064  -0.293  10.843  0.00  0.00    +0.000 OA
BRANCH  36  37
ATOM     37  C   UNL     1     -16.218  -0.793  11.445  0.00  0.00    +0.000 C 
BRANCH  37  39
ATOM     38  O   UNL     1     -17.617   1.075  11.817  0.00  0.00    +0.000 OA
ATOM     39  C   UNL     1     -16.739   0.180  12.468  0.00  0.00    +0.000 C 
ENDBRANCH  37  39
ENDBRANCH  36  37
ENDBRANCH  35  36
ENDBRANCH  34  35
ENDBRANCH  33  34
ENDBRANCH  32  33
ENDBRANCH  31  32
ENDBRANCH  30  31
ENDBRANCH  29  30
ENDBRANCH  28  29
ENDBRANCH  27  28
ENDBRANCH  26  27
ENDBRANCH  25  26
ENDBRANCH  24  25
ENDBRANCH   5  24
ENDBRANCH   2   4
ENDBRANCH   1   2
BRANCH   1  40
ATOM     40  O   UNL     1      -8.406   3.774  11.485  0.00  0.00    +0.000 OA
BRANCH  40  41
ATOM     41  C   UNL     1      -9.250   4.636  10.753  0.00  0.00    +0.000 C 
BRANCH  41  42
ATOM     42  C   UNL     1      -9.328   4.229   9.309  0.00  0.00    +0.000 C 
BRANCH  42  43
ATOM     43  O   UNL     1      -9.028   5.282   8.466  0.00  0.00    +0.000 OA
BRANCH  43  44
ATOM     44  C   UNL     1     -10.118   5.734   7.741  0.00  0.00    +0.000 C 
BRANCH  44  45
ATOM     45  C   UNL     1     -10.896   4.574   7.207  0.00  0.00    +0.000 C 
BRANCH  45  46
ATOM     46  O   UNL     1     -11.820   4.949   6.276  0.00  0.00    +0.000 OA
BRANCH  46  47
ATOM     47  C   UNL     1     -13.148   4.547   6.608  0.00  0.00    +0.000 C 
BRANCH  47  48
ATOM     48  C   UNL     1     -13.294   3.089   6.372  0.00  0.00    +0.000 C 
BRANCH  48  49
ATOM     49  O   UNL     1     -14.633   2.818   6.059  0.00  0.00    +0.000 OA
BRANCH  49  50
ATOM     50  C   UNL     1     -15.376   4.015   5.901  0.00  0.00    +0.000 C 
BRANCH  50  51
ATOM     51  C   UNL     1     -16.812   3.686   5.948  0.00  0.00    +0.000 C 
BRANCH  51  52
ATOM     52  O   UNL     1     -17.468   4.751   6.553  0.00  0.00    +0.000 OA
BRANCH  52  53
ATOM     53  C   UNL     1     -16.674   5.369   7.562  0.00  0.00    +0.000 C 
BRANCH  53  54
ATOM     54  C   UNL     1     -16.772   6.878   7.513  0.00  0.00    +0.000 C 
ATOM     55  O   UNL     1     -16.871   7.313   6.160  0.00  0.00    +0.000 OA
ENDBRANCH  53  54
ENDBRANCH  52  53
ENDBRANCH  51  52
ENDBRANCH  50  51
ENDBRANCH  49  50
ENDBRANCH  48  49
ENDBRANCH  47  48
ENDBRANCH  46  47
ENDBRANCH  45  46
ENDBRANCH  44  45
ENDBRANCH  43  44
ENDBRANCH  42  43
ENDBRANCH  41  42
ENDBRANCH  40  41
ENDBRANCH   1  40
BRANCH   1  56
ATOM     56  C   UNL     1     -10.411   2.914  12.326  0.00  0.00    +0.000 C 
BRANCH  56  57
ATOM     57  O   UNL     1     -10.616   1.598  12.679  0.00  0.00    +0.000 OA
BRANCH  57  58
ATOM     58  C   UNL     1     -11.998   1.222  12.512  0.00  0.00    +0.000 C 
BRANCH  58  59
ATOM     59  C   UNL     1     -12.097  -0.279  12.281  0.00  0.00    +0.000 C 
BRANCH  59  60
ATOM     60  O   UNL     1     -12.837  -0.890  13.303  0.00  0.00    +0.000 OA
BRANCH  60  61
ATOM     61  C   UNL     1     -13.138  -0.019  14.380  0.00  0.00    +0.000 C 
BRANCH  61  62
ATOM     62  C   UNL     1     -12.520  -0.467  15.700  0.00  0.00    +0.000 C 
BRANCH  62  63
ATOM     63  O   UNL     1     -12.994   0.360  16.742  0.00  0.00    +0.000 OA
BRANCH  63  64
ATOM     64  C   UNL     1     -11.933   0.947  17.457  0.00  0.00    +0.000 C 
BRANCH  64  65
ATOM     65  C   UNL     1     -12.474   2.107  18.280  0.00  0.00    +0.000 C 
BRANCH  65  66
ATOM     66  O   UNL     1     -11.377   2.941  18.639  0.00  0.00    +0.000 OA
BRANCH  66  67
ATOM     67  C   UNL     1     -11.599   3.644  19.810  0.00  0.00    +0.000 C 
BRANCH  67  68
ATOM     68  C   UNL     1     -10.361   3.561  20.674  0.00  0.00    +0.000 C 
BRANCH  68  69
ATOM     69  O   UNL     1     -10.584   4.378  21.793  0.00  0.00    +0.000 OA
BRANCH  69  70
ATOM     70  C   UNL     1      -9.420   4.729  22.442  0.00  0.00    +0.000 C 
BRANCH  70  71
ATOM     71  C   UNL     1      -8.228   4.335  21.591  0.00  0.00    +0.000 C 
BRANCH  71  72
ATOM     72  O   UNL     1      -7.116   4.445  22.436  0.00  0.00    +0.000 OA
BRANCH  72  74
ATOM     73  O   UNL     1      -6.670   2.288  22.232  0.00  0.00    +0.000 OA
ATOM     74  C   UNL     1      -6.262   3.398  22.322  0.00  0.00    +0.000 C 
BRANCH  74  75
ATOM     75  C   UNL     1      -4.832   3.741  22.314  0.00  0.00    +0.000 C 
BRANCH  75  76
ATOM     76  C   UNL     1      -4.494   4.471  23.627  0.00  0.00    +0.000 C 
BRANCH  76  77
ATOM     77  C   UNL     1      -3.059   4.176  24.019  0.00  0.00    +0.000 C 
BRANCH  77  78
ATOM     78  C   UNL     1      -2.883   4.430  25.508  0.00  0.00    +0.000 C 
BRANCH  78  79
ATOM     79  C   UNL     1      -1.409   4.590  25.788  0.00  0.00    +0.000 C 
BRANCH  79  80
ATOM     80  C   UNL     1      -0.649   3.896  24.652  0.00  0.00    +0.000 C 
BRANCH  80  81
ATOM     81  C   UNL     1       0.582   4.707  24.325  0.00  0.00    +0.000 C 
BRANCH  81  82
ATOM     82  C   UNL     1       0.164   5.976  23.587  0.00  0.00    +0.000 C 
BRANCH  82  83
ATOM     83  C   UNL     1       0.671   7.219  24.303  0.00  0.00    +0.000 C 
BRANCH  83  84
ATOM     84  C   UNL     1      -0.356   8.310  24.345  0.00  0.00    +0.000 C 
ATOM     85  C   UNL     1      -1.729   7.784  24.054  0.00  0.00    +0.000 C 
ENDBRANCH  83  84
ENDBRANCH  82  83
ENDBRANCH  81  82
ENDBRANCH  80  81
ENDBRANCH  79  80
ENDBRANCH  78  79
ENDBRANCH  77  78
ENDBRANCH  76  77
ENDBRANCH  75  76
ENDBRANCH  74  75
ENDBRANCH  72  74
ENDBRANCH  71  72
ENDBRANCH  70  71
ENDBRANCH  69  70
ENDBRANCH  68  69
ENDBRANCH  67  68
ENDBRANCH  66  67
ENDBRANCH  65  66
ENDBRANCH  64  65
ENDBRANCH  63  64
ENDBRANCH  62  63
ENDBRANCH  61  62
ENDBRANCH  60  61
ENDBRANCH  59  60
ENDBRANCH  58  59
ENDBRANCH  57  58
ENDBRANCH  56  57
ENDBRANCH   1  56
TORSDOF 75
BEGIN_RES LEU A  10
REMARK  2 active torsions:
REMARK  status: ('A' for Active; 'I' for Inactive)
REMARK    1  A    between atoms: CA   and  CB  
REMARK    2  A    between atoms: CB   and  CG  
ROOT
ATOM      1  CA  LEU A  10     -10.775  -4.871   5.898  1.00 25.14     0.177 C 
ENDROOT
BRANCH   1   2
ATOM      2  CB  LEU A  10     -12.191  -4.387   6.226  1.00 17.87     0.038 C 
BRANCH   2   3
ATOM      3  CG  LEU A  10     -12.719  -3.297   5.291  1.00 24.95    -0.020 C 
ATOM      4  CD2 LEU A  10     -13.558  -2.347   6.078  1.00 26.38     0.009 C 
ATOM      5  CD1 LEU A  10     -13.521  -3.900   4.151  1.00 28.12     0.009 C 
ENDBRANCH   2   3
ENDBRANCH   1   2
END_RES LEU A  10
BEGIN_RES CYS A  12
REMARK  2 active torsions:
REMARK  status: ('A' for Active; 'I' for Inactive)
REMARK    3  A    between atoms: CA   and  CB  
REMARK    4  A    between atoms: CB   and  SG  
ROOT
ATOM      6  CA  CYS A  12      -8.555   0.470   8.750  1.00 23.16     0.185 C 
ENDROOT
BRANCH   6   7
ATOM      7  CB  CYS A  12      -9.828   0.763   9.555  1.00 20.43     0.105 C 
BRANCH   7   8
ATOM      8  SG  CYS A  12     -11.352   0.988   8.588  1.00 24.64    -0.180 SA
ATOM      9  H04 CYS A  12     -12.412   0.941   9.405  1.00 24.64     0.101 HD
ENDBRANCH   7   8
ENDBRANCH   6   7
END_RES CYS A  12
BEGIN_RES GLN A  14
REMARK  3 active torsions:
REMARK  status: ('A' for Active; 'I' for Inactive)
REMARK    5  A    between atoms: CA   and  CB  
REMARK    6  A    between atoms: CB   and  CG  
REMARK    7  A    between atoms: CG   and  CD  
REMARK       I    between atoms: CD   and  NE2 
ROOT
ATOM     10  CA  GLN A  14      -4.645   5.402  11.377  1.00 10.43     0.177 C 
ENDROOT
BRANCH  10  11
ATOM     11  CB  GLN A  14      -5.541   5.549  12.608  1.00 14.45     0.044 C 
BRANCH  11  12
ATOM     12  CG  GLN A  14      -6.562   6.658  12.499  1.00 13.74     0.105 C 
BRANCH  12  13
ATOM     13  CD  GLN A  14      -6.097   7.937  13.155  1.00 16.29     0.215 C 
ATOM     14  NE2 GLN A  14      -6.844   8.398  14.134  1.00  8.57    -0.370 N 
ATOM     15  H06 GLN A  14      -6.582   9.249  14.611  1.00  8.57     0.159 HD
ATOM     16  H07 GLN A  14      -7.680   7.902  14.409  1.00  8.57     0.159 HD
ATOM     17  OE1 GLN A  14      -5.078   8.499  12.787  1.00 23.55    -0.274 OA
ENDBRANCH  12  13
ENDBRANCH  11  12
ENDBRANCH  10  11
END_RES GLN A  14
BEGIN_RES SER A  16
REMARK  2 active torsions:
REMARK  status: ('A' for Active; 'I' for Inactive)
REMARK    8  A    between atoms: CA   and  CB  
REMARK    9  A    between atoms: CB   and  OG  
ROOT
ATOM     18  CA  SER A  16      -1.305  10.019  14.282  1.00  2.34     0.200 C 
ENDROOT
BRANCH  18  19
ATOM     19  CB  SER A  16      -2.242   9.935  15.479  1.00  3.12     0.199 C 
BRANCH  19  20
ATOM     20  OG  SER A  16      -3.447   9.285  15.116  1.00  1.00    -0.398 OA
ATOM     21  H04 SER A  16      -3.885   9.784  14.424  1.00  1.00     0.209 HD
ENDBRANCH  19  20
ENDBRANCH  18  19
END_RES SER A  16
BEGIN_RES LEU A  32
REMARK  2 active torsions:
REMARK  status: ('A' for Active; 'I' for Inactive)
REMARK   10  A    between atoms: CA   and  CB  
REMARK   11  A    between atoms: CB   and  CG  
ROOT
ATOM     22  CA  LEU A  32     -10.272  -4.106   1.587  1.00 16.16     0.177 C 
ENDROOT
BRANCH  22  23
ATOM     23  CB  LEU A  32     -11.613  -3.858   0.880  1.00 12.35     0.038 C 
BRANCH  23  24
ATOM     24  CG  LEU A  32     -12.584  -5.043   1.058  1.00  9.77    -0.020 C 
ATOM     25  CD1 LEU A  32     -13.997  -4.616   0.739  1.00  4.35     0.009 C 
ATOM     26  CD2 LEU A  32     -12.190  -6.198   0.175  1.00 10.60     0.009 C 
ENDBRANCH  23  24
ENDBRANCH  22  23
END_RES LEU A  32
BEGIN_RES HIS A  38
REMARK  2 active torsions:
REMARK  status: ('A' for Active; 'I' for Inactive)
REMARK   12  A    between atoms: CA   and  CB  
REMARK   13  A    between atoms: CB   and  CG  
ROOT
ATOM     27  CA  HIS A  38     -10.959   4.941   1.621  1.00 16.94     0.182 C 
ENDROOT
BRANCH  27  28
ATOM     28  CB  HIS A  38     -11.810   4.840   2.881  1.00 15.47     0.095 C 
BRANCH  28  29
ATOM     29  CG  HIS A  38     -13.096   4.105   2.684  1.00 18.62     0.053 A 
ATOM     30  CD2 HIS A  38     -14.296   4.523   2.215  1.00 15.06     0.116 A 
ATOM     31  NE2 HIS A  38     -15.128   3.433   2.211  1.00 18.12    -0.359 N 
ATOM     32  CE1 HIS A  38     -14.467   2.384   2.662  1.00 14.78     0.207 A 
ATOM     33  H06 HIS A  38     -16.093   3.433   1.912  1.00 18.12     0.166 HD
ATOM     34  ND1 HIS A  38     -13.238   2.762   2.955  1.00 16.58    -0.247 NA
ENDBRANCH  28  29
ENDBRANCH  27  28
END_RES HIS A  38
BEGIN_RES TRP A  63
REMARK  2 active torsions:
REMARK  status: ('A' for Active; 'I' for Inactive)
REMARK   14  A    between atoms: CA   and  CB  
REMARK   15  A    between atoms: CB   and  CG  
ROOT
ATOM     35  CA  TRP A  63     -22.437   6.257   6.543  1.00 27.04     0.181 C 
ENDROOT
BRANCH  35  36
ATOM     36  CB  TRP A  63     -22.360   6.642   5.068  1.00 31.37     0.075 C 
BRANCH  36  37
ATOM     37  CG  TRP A  63     -20.960   6.643   4.490  1.00 34.37    -0.028 A 
ATOM     38  CD2 TRP A  63     -20.297   7.726   3.824  1.00 33.79    -0.002 A 
ATOM     39  CE3 TRP A  63     -20.677   9.017   3.452  1.00 32.99     0.014 A 
ATOM     40  CE2 TRP A  63     -18.987   7.292   3.524  1.00 35.84     0.042 A 
ATOM     41  CZ3 TRP A  63     -19.754   9.824   2.802  1.00 32.93     0.001 A 
ATOM     42  CH2 TRP A  63     -18.459   9.363   2.517  1.00 39.24     0.002 A 
ATOM     43  CZ2 TRP A  63     -18.058   8.102   2.871  1.00 37.99     0.030 A 
ATOM     44  NE1 TRP A  63     -18.867   6.010   3.985  1.00 37.98    -0.365 N 
ATOM     45  H06 TRP A  63     -18.039   5.435   3.914  1.00 37.98     0.165 HD
ATOM     46  CD1 TRP A  63     -20.056   5.630   4.560  1.00 38.16     0.096 A 
ENDBRANCH  36  37
ENDBRANCH  35  36
END_RES TRP A  63
BEGIN_RES LEU A  66
REMARK  2 active torsions:
REMARK  status: ('A' for Active; 'I' for Inactive)
REMARK   16  A    between atoms: CA   and  CB  
REMARK   17  A    between atoms: CB   and  CG  
ROOT
ATOM     47  CA  LEU A  66     -20.004   6.489  11.120  1.00 10.90     0.177 C 
ENDROOT
BRANCH  47  48
ATOM     48  CB  LEU A  66     -19.626   5.453  10.069  1.00 13.57     0.038 C 
BRANCH  48  49
ATOM     49  CG  LEU A  66     -19.422   4.015  10.546  1.00  8.73    -0.020 C 
ATOM     50  CD1 LEU A  66     -19.649   3.911  12.031  1.00 14.23     0.009 C 
ATOM     51  CD2 LEU A  66     -20.392   3.126   9.811  1.00  1.92     0.009 C 
ENDBRANCH  48  49
ENDBRANCH  47  48
END_RES LEU A  66
BEGIN_RES PHE A  70
REMARK  2 active torsions:
REMARK  status: ('A' for Active; 'I' for Inactive)
REMARK   18  A    between atoms: CA   and  CB  
REMARK   19  A    between atoms: CB   and  CG  
ROOT
ATOM     52  CA  PHE A  70     -14.974   9.434  13.165  1.00  8.78     0.180 C 
ENDROOT
BRANCH  52  53
ATOM     53  CB  PHE A  70     -14.707   9.132  11.681  1.00  6.33     0.073 C 
BRANCH  53  54
ATOM     54  CG  PHE A  70     -13.945   7.854  11.458  1.00  3.42    -0.056 A 
ATOM     55  CD1 PHE A  70     -13.743   7.355  10.180  1.00 13.88     0.007 A 
ATOM     56  CE1 PHE A  70     -13.071   6.136   9.982  1.00 12.71     0.001 A 
ATOM     57  CZ  PHE A  70     -12.596   5.410  11.076  1.00  4.21     0.000 A 
ATOM     58  CE2 PHE A  70     -12.790   5.899  12.354  1.00  2.83     0.001 A 
ATOM     59  CD2 PHE A  70     -13.463   7.118  12.542  1.00  1.00     0.007 A 
ENDBRANCH  53  54
ENDBRANCH  52  53
END_RES PHE A  70
BEGIN_RES TYR A  73
REMARK  3 active torsions:
REMARK  status: ('A' for Active; 'I' for Inactive)
REMARK   20  A    between atoms: CA   and  CB  
REMARK   21  A    between atoms: CB   and  CG  
REMARK   22  A    between atoms: CZ   and  OH  
ROOT
ATOM     60  CA  TYR A  73     -13.212  10.166  17.260  1.00 12.17     0.180 C 
ENDROOT
BRANCH  60  61
ATOM     61  CB  TYR A  73     -13.301   8.846  16.517  1.00 12.84     0.073 C 
BRANCH  61  62
ATOM     62  CG  TYR A  73     -13.770   7.724  17.375  1.00 15.89    -0.056 A 
ATOM     63  CD1 TYR A  73     -14.080   6.496  16.834  1.00 16.00     0.010 A 
ATOM     64  CE1 TYR A  73     -14.549   5.452  17.632  1.00 13.55     0.037 A 
ATOM     65  CZ  TYR A  73     -14.706   5.656  18.988  1.00 18.13     0.065 A 
ATOM     66  CE2 TYR A  73     -14.402   6.872  19.554  1.00 15.89     0.037 A 
ATOM     67  CD2 TYR A  73     -13.935   7.900  18.744  1.00 21.86     0.010 A 
BRANCH  65  68
ATOM     68  OH  TYR A  73     -15.160   4.641  19.794  1.00 12.12    -0.361 OA
ATOM     69  H08 TYR A  73     -14.504   3.940  19.828  1.00 12.12     0.217 HD
ENDBRANCH  65  68
ENDBRANCH  61  62
ENDBRANCH  60  61
END_RES TYR A  73
BEGIN_RES PHE A  77
REMARK  2 active torsions:
REMARK  status: ('A' for Active; 'I' for Inactive)
REMARK   23  A    between atoms: CA   and  CB  
REMARK   24  A    between atoms: CB   and  CG  
ROOT
ATOM     70  CA  PHE A  77      -8.400  10.581  20.110  1.00 17.17     0.180 C 
ENDROOT
BRANCH  70  71
ATOM     71  CB  PHE A  77      -8.228   9.750  18.851  1.00 10.44     0.073 C 
BRANCH  71  72
ATOM     72  CG  PHE A  77      -7.160   8.707  18.958  1.00  6.07    -0.056 A 
ATOM     73  CD2 PHE A  77      -7.021   7.964  20.108  1.00  9.61     0.007 A 
ATOM     74  CE2 PHE A  77      -6.033   6.992  20.216  1.00  1.00     0.001 A 
ATOM     75  CZ  PHE A  77      -5.174   6.760  19.155  1.00  1.92     0.000 A 
ATOM     76  CE1 PHE A  77      -5.301   7.493  17.998  1.00  9.25     0.001 A 
ATOM     77  CD1 PHE A  77      -6.295   8.467  17.903  1.00  9.63     0.007 A 
ENDBRANCH  71  72
ENDBRANCH  70  71
END_RES PHE A  77
BEGIN_RES LEU A  96
REMARK  2 active torsions:
REMARK  status: ('A' for Active; 'I' for Inactive)
REMARK   25  A    between atoms: CA   and  CB  
REMARK   26  A    between atoms: CB   and  CG  
ROOT
ATOM     78  CA  LEU A  96       0.717   6.481  17.359  1.00 16.08     0.177 C 
ENDROOT
BRANCH  78  79
ATOM     79  CB  LEU A  96      -0.370   7.101  18.230  1.00 18.83     0.038 C 
BRANCH  79  80
ATOM     80  CG  LEU A  96      -0.873   6.198  19.356  1.00 19.03    -0.020 C 
ATOM     81  CD1 LEU A  96       0.316   5.573  20.048  1.00 28.17     0.009 C 
ATOM     82  CD2 LEU A  96      -1.648   7.005  20.372  1.00 22.01     0.009 C 
ENDBRANCH  79  80
ENDBRANCH  78  79
END_RES LEU A  96
BEGIN_RES VAL A  98
REMARK  1 active torsions:
REMARK  status: ('A' for Active; 'I' for Inactive)
REMARK   27  A    between atoms: CA   and  CB  
ROOT
ATOM     83  CA  VAL A  98      -3.928   2.082  14.897  1.00 19.83     0.180 C 
ENDROOT
BRANCH  83  84
ATOM     84  CB  VAL A  98      -5.203   2.807  15.281  1.00 17.87     0.009 C 
ATOM     85  CG2 VAL A  98      -5.041   3.459  16.630  1.00 29.90     0.012 C 
ATOM     86  CG1 VAL A  98      -6.358   1.828  15.292  1.00 14.79     0.012 C 
ENDBRANCH  83  84
END_RES VAL A  98
BEGIN_RES ASN A 112
REMARK  2 active torsions:
REMARK  status: ('A' for Active; 'I' for Inactive)
REMARK   28  A    between atoms: CA   and  CB  
REMARK   29  A    between atoms: CB   and  CG  
REMARK       I    between atoms: CG   and  ND2 
ROOT
ATOM     87  CA  ASN A 112     -11.790  -8.793  14.069  1.00 37.70     0.185 C 
ENDROOT
BRANCH  87  88
ATOM     88  CB  ASN A 112     -12.992  -7.945  14.465  1.00 26.24     0.137 C 
BRANCH  88  89
ATOM     89  CG  ASN A 112     -13.826  -8.574  15.558  1.00 21.77     0.217 C 
ATOM     90  ND2 ASN A 112     -14.962  -9.153  15.172  1.00  9.31    -0.370 N 
ATOM     91  H04 ASN A 112     -15.565  -9.589  15.856  1.00  9.31     0.159 HD
ATOM     92  H05 ASN A 112     -15.221  -9.156  14.195  1.00  9.31     0.159 HD
ATOM     93  OD1 ASN A 112     -13.460  -8.536  16.739  1.00 21.61    -0.274 OA
ENDBRANCH  88  89
ENDBRANCH  87  88
END_RES ASN A 112
BEGIN_RES PHE A 114
REMARK  2 active torsions:
REMARK  status: ('A' for Active; 'I' for Inactive)
REMARK   30  A    between atoms: CA   and  CB  
REMARK   31  A    between atoms: CB   and  CG  
ROOT
ATOM     94  CA  PHE A 114      -7.754  -3.619  17.012  1.00 26.06     0.180 C 
ENDROOT
BRANCH  94  95
ATOM     95  CB  PHE A 114      -8.890  -3.080  17.867  1.00 19.95     0.073 C 
BRANCH  95  96
ATOM     96  CG  PHE A 114      -8.719  -1.643  18.241  1.00 17.65    -0.056 A 
ATOM     97  CD1 PHE A 114      -9.035  -1.198  19.522  1.00 13.01     0.007 A 
ATOM     98  CE1 PHE A 114      -8.905   0.142  19.862  1.00  6.74     0.001 A 
ATOM     99  CZ  PHE A 114      -8.451   1.060  18.919  1.00  6.27     0.000 A 
ATOM    100  CE2 PHE A 114      -8.132   0.628  17.641  1.00 17.36     0.001 A 
ATOM    101  CD2 PHE A 114      -8.267  -0.723  17.305  1.00 18.39     0.007 A 
ENDBRANCH  95  96
ENDBRANCH  94  95
END_RES PHE A 114
BEGIN_RES VAL A 116
REMARK  1 active torsions:
REMARK  status: ('A' for Active; 'I' for Inactive)
REMARK   32  A    between atoms: CA   and  CB  
ROOT
ATOM    102  CA  VAL A 116      -2.467   0.283  18.565  1.00 13.48     0.180 C 
ENDROOT
BRANCH 102 103
ATOM    103  CB  VAL A 116      -3.101   1.238  19.599  1.00 20.86     0.009 C 
ATOM    104  CG1 VAL A 116      -2.570   2.657  19.378  1.00 25.01     0.012 C 
ATOM    105  CG2 VAL A 116      -4.609   1.190  19.522  1.00 25.34     0.012 C 
ENDBRANCH 102 103
END_RES VAL A 116
BEGIN_RES ILE A 123
REMARK  2 active torsions:
REMARK  status: ('A' for Active; 'I' for Inactive)
REMARK   33  A    between atoms: CA   and  CB  
REMARK   34  A    between atoms: CB   and  CG1 
ROOT
ATOM    106  CA  ILE A 123       1.557  -1.626  23.222  1.00 15.07     0.180 C 
ENDROOT
BRANCH 106 107
ATOM    107  CB  ILE A 123       1.697  -0.112  23.461  1.00 14.41     0.013 C 
ATOM    108  CG2 ILE A 123       3.082   0.201  24.000  1.00 18.35     0.012 C 
BRANCH 107 109
ATOM    109  CG1 ILE A 123       1.450   0.655  22.164  1.00 15.23     0.002 C 
ATOM    110  CD1 ILE A 123       0.158   1.435  22.159  1.00 14.67     0.005 C 
ENDBRANCH 107 109
ENDBRANCH 106 107
END_RES ILE A 123
BEGIN_RES LEU A 124
REMARK  2 active torsions:
REMARK  status: ('A' for Active; 'I' for Inactive)
REMARK   35  A    between atoms: CA   and  CB  
REMARK   36  A    between atoms: CB   and  CG  
ROOT
ATOM    111  CA  LEU A 124      -2.057  -2.686  23.524  1.00 11.86     0.177 C 
ENDROOT
BRANCH 111 112
ATOM    112  CB  LEU A 124      -2.698  -1.652  24.429  1.00 14.60     0.038 C 
BRANCH 112 113
ATOM    113  CG  LEU A 124      -2.578  -0.245  23.863  1.00 16.19    -0.020 C 
ATOM    114  CD1 LEU A 124      -3.943   0.184  23.291  1.00 22.07     0.009 C 
ATOM    115  CD2 LEU A 124      -2.103   0.693  24.945  1.00  9.12     0.009 C 
ENDBRANCH 112 113
ENDBRANCH 111 112
END_RES LEU A 124
BEGIN_RES PHE A 126
REMARK  2 active torsions:
REMARK  status: ('A' for Active; 'I' for Inactive)
REMARK   37  A    between atoms: CA   and  CB  
REMARK   38  A    between atoms: CB   and  CG  
ROOT
ATOM    116  CA  PHE A 126      -8.784  -4.792  22.233  1.00 23.15     0.180 C 
ENDROOT
BRANCH 116 117
ATOM    117  CB  PHE A 126      -9.823  -4.011  21.461  1.00 20.65     0.073 C 
BRANCH 117 118
ATOM    118  CG  PHE A 126     -10.947  -3.539  22.297  1.00 23.65    -0.056 A 
ATOM    119  CD2 PHE A 126     -12.216  -4.068  22.139  1.00 36.63     0.007 A 
ATOM    120  CE2 PHE A 126     -13.280  -3.620  22.933  1.00 36.27     0.001 A 
ATOM    121  CZ  PHE A 126     -13.065  -2.638  23.888  1.00 18.06     0.000 A 
ATOM    122  CE1 PHE A 126     -11.800  -2.109  24.051  1.00  5.50     0.001 A 
ATOM    123  CD1 PHE A 126     -10.746  -2.563  23.258  1.00 15.29     0.007 A 
ENDBRANCH 117 118
ENDBRANCH 116 117
END_RES PHE A 126
BEGIN_RES TRP A 131
REMARK  2 active torsions:
REMARK  status: ('A' for Active; 'I' for Inactive)
REMARK   39  A    between atoms: CA   and  CB  
REMARK   40  A    between atoms: CB   and  CG  
ROOT
ATOM    124  CA  TRP A 131      -8.096  -3.335  26.542  1.00 14.52     0.181 C 
ENDROOT
BRANCH 124 125
ATOM    125  CB  TRP A 131      -7.651  -1.877  26.607  1.00 13.06     0.075 C 
BRANCH 125 126
ATOM    126  CG  TRP A 131      -8.042  -1.054  25.400  1.00 16.97    -0.028 A 
ATOM    127  CD2 TRP A 131      -9.124  -0.123  25.317  1.00 11.34    -0.002 A 
ATOM    128  CE2 TRP A 131      -9.118   0.419  24.017  1.00  5.87     0.042 A 
ATOM    129  CE3 TRP A 131     -10.101   0.305  26.223  1.00  3.80     0.014 A 
ATOM    130  CZ2 TRP A 131     -10.051   1.370  23.600  1.00  1.35     0.030 A 
ATOM    131  NE1 TRP A 131      -8.081  -0.157  23.336  1.00 13.90    -0.365 N 
ATOM    132  CH2 TRP A 131     -10.997   1.772  24.509  1.00  1.00     0.002 A 
ATOM    133  CZ3 TRP A 131     -11.029   1.246  25.814  1.00  1.00     0.001 A 
ATOM    134  CD1 TRP A 131      -7.438  -1.040  24.172  1.00 17.22     0.096 A 
ATOM    135  H07 TRP A 131      -7.828   0.035  22.378  1.00 13.90     0.165 HD
ENDBRANCH 125 126
ENDBRANCH 124 125
END_RES TRP A 131
BEGIN_RES LEU A 148
REMARK  2 active torsions:
REMARK  status: ('A' for Active; 'I' for Inactive)
REMARK   41  A    between atoms: CA   and  CB  
REMARK   42  A    between atoms: CB   and  CG  
ROOT
ATOM    136  CA  LEU A 148      -9.018   3.259  29.295  1.00 16.99     0.177 C 
ENDROOT
BRANCH 136 137
ATOM    137  CB  LEU A 148      -8.166   2.574  28.236  1.00  6.39     0.038 C 
BRANCH 137 138
ATOM    138  CG  LEU A 148      -7.968   3.196  26.869  1.00  1.00    -0.020 C 
ATOM    139  CD2 LEU A 148      -6.530   3.583  26.676  1.00  1.00     0.009 C 
ATOM    140  CD1 LEU A 148      -8.867   4.414  26.766  1.00  2.71     0.009 C 
ENDBRANCH 137 138
ENDBRANCH 136 137
END_RES LEU A 148
BEGIN_RES THR A 154
REMARK  2 active torsions:
REMARK  status: ('A' for Active; 'I' for Inactive)
REMARK   43  A    between atoms: CA   and  CB  
REMARK   44  A    between atoms: CB   and  OG1 
ROOT
ATOM    141  CA  THR A 154     -15.990   3.959  24.426  1.00 20.45     0.205 C 
ENDROOT
BRANCH 141 142
ATOM    142  CB  THR A 154     -14.777   4.829  24.694  1.00 16.79     0.146 C 
ATOM    143  CG2 THR A 154     -13.680   4.521  23.693  1.00 20.24     0.042 C 
BRANCH 142 144
ATOM    144  OG1 THR A 154     -15.153   6.205  24.559  1.00 18.84    -0.393 OA
ATOM    145  H06 THR A 154     -14.370   6.757  24.599  1.00 18.84     0.210 HD
ENDBRANCH 142 144
ENDBRANCH 141 142
END_RES THR A 154
BEGIN_RES VAL A 158
REMARK  1 active torsions:
REMARK  status: ('A' for Active; 'I' for Inactive)
REMARK   45  A    between atoms: CA   and  CB  
ROOT
ATOM    146  CA  VAL A 158     -15.487  -0.189  19.892  1.00 15.49     0.180 C 
ENDROOT
BRANCH 146 147
ATOM    147  CB  VAL A 158     -14.291  -0.273  20.822  1.00  6.52     0.009 C 
ATOM    148  CG1 VAL A 158     -13.184  -1.096  20.204  1.00  1.00     0.012 C 
ATOM    149  CG2 VAL A 158     -13.815   1.115  21.119  1.00  5.99     0.012 C 
ENDBRANCH 146 147
END_RES VAL A 158
BEGIN_RES LEU A 161
REMARK  2 active torsions:
REMARK  status: ('A' for Active; 'I' for Inactive)
REMARK   46  A    between atoms: CA   and  CB  
REMARK   47  A    between atoms: CB   and  CG  
ROOT
ATOM    150  CA  LEU A 161     -18.031  -1.858  15.935  1.00 13.31     0.177 C 
ENDROOT
BRANCH 150 151
ATOM    151  CB  LEU A 161     -17.046  -0.706  16.001  1.00 14.13     0.038 C 
BRANCH 151 152
ATOM    152  CG  LEU A 161     -17.555   0.645  15.515  1.00 19.39    -0.020 C 
ATOM    153  CD2 LEU A 161     -17.004   1.753  16.380  1.00 27.75     0.009 C 
ATOM    154  CD1 LEU A 161     -19.058   0.648  15.569  1.00 18.59     0.009 C 
ENDBRANCH 151 152
ENDBRANCH 150 151
END_RES LEU A 161
BEGIN_RES GLN A 168
REMARK  3 active torsions:
REMARK  status: ('A' for Active; 'I' for Inactive)
REMARK   48  A    between atoms: CA   and  CB  
REMARK   49  A    between atoms: CB   and  CG  
REMARK   50  A    between atoms: CG   and  CD  
REMARK       I    between atoms: CD   and  NE2 
ROOT
ATOM    155  CA  GLN A 168     -22.035  -6.020   8.155  1.00 30.94     0.177 C 
ENDROOT
BRANCH 155 156
ATOM    156  CB  GLN A 168     -23.054  -5.218   8.946  1.00 41.76     0.044 C 
BRANCH 156 157
ATOM    157  CG  GLN A 168     -24.445  -5.239   8.373  1.00 61.20     0.105 C 
BRANCH 157 158
ATOM    158  CD  GLN A 168     -25.087  -3.865   8.396  1.00 75.49     0.215 C 
ATOM    159  NE2 GLN A 168     -26.028  -3.639   7.478  1.00 85.00    -0.370 N 
ATOM    160  H06 GLN A 168     -26.491  -2.742   7.441  1.00 85.00     0.159 HD
ATOM    161  H07 GLN A 168     -26.277  -4.364   6.820  1.00 85.00     0.159 HD
ATOM    162  OE1 GLN A 168     -24.740  -3.012   9.225  1.00 73.64    -0.274 OA
ENDBRANCH 157 158
ENDBRANCH 156 157
ENDBRANCH 155 156
END_RES GLN A 168
ENDMDL
MODEL 2
REMARK VINA RESULT:      -7.1      0.888      2.042
REMARK  Name = human_CD1d_Tween20_pred.rank_0
REMARK  75 active torsions:
REMARK  status: ('A' for Active; 'I' for Inactive)
REMARK    1  A    between atoms: C_1  and  C_3
REMARK    2  A    between atoms: C_3  and  O_4
REMARK    3  A    between atoms: O_4  and  C_5
REMARK    4  A    between atoms: C_5  and  C_7
REMARK    5  A    between atoms: O_6  and  C_7
REMARK    6  A    between atoms: O_6  and  C_9
REMARK    7  A    between atoms: O_8  and  C_11
REMARK    8  A    between atoms: O_8  and  C_13
REMARK    9  A    between atoms: C_9  and  C_11
REMARK   10  A    between atoms: O_10  and  C_15
REMARK   11  A    between atoms: O_10  and  C_17
REMARK   12  A    between atoms: O_12  and  C_19
REMARK   13  A    between atoms: O_12  and  C_21
REMARK   14  A    between atoms: C_13  and  C_15
REMARK   15  A    between atoms: O_14  and  C_23
REMARK   16  A    between atoms: O_14  and  C_25
REMARK   17  A    between atoms: O_16  and  C_27
REMARK   18  A    between atoms: O_16  and  C_29
REMARK   19  A    between atoms: C_17  and  C_19
REMARK   20  A    between atoms: O_18  and  C_31
REMARK   21  A    between atoms: O_18  and  C_33
REMARK   22  A    between atoms: O_20  and  C_35
REMARK   23  A    between atoms: O_20  and  C_37
REMARK   24  A    between atoms: C_21  and  C_23
REMARK   25  A    between atoms: C_21  and  C_61
REMARK   26  A    between atoms: O_22  and  C_39
REMARK   27  A    between atoms: O_22  and  C_41
REMARK   28  A    between atoms: O_24  and  C_43
REMARK   29  A    between atoms: O_24  and  C_45
REMARK   30  A    between atoms: C_25  and  C_27
REMARK   31  A    between atoms: O_28  and  C_63
REMARK   32  A    between atoms: O_28  and  C_64
REMARK   33  A    between atoms: C_29  and  C_31
REMARK   34  A    between atoms: O_30  and  C_65
REMARK   35  A    between atoms: O_30  and  C_66
REMARK   36  A    between atoms: O_32  and  C_67
REMARK   37  A    between atoms: O_32  and  C_68
REMARK   38  A    between atoms: C_33  and  C_35
REMARK   39  A    between atoms: O_34  and  C_69
REMARK   40  A    between atoms: O_34  and  C_70
REMARK   41  A    between atoms: O_36  and  C_71
REMARK   42  A    between atoms: O_36  and  C_72
REMARK   43  A    between atoms: C_37  and  C_39
REMARK   44  A    between atoms: O_40  and  C_74
REMARK   45  A    between atoms: O_40  and  C_75
REMARK   46  A    between atoms: C_41  and  C_43
REMARK   47  A    between atoms: O_42  and  C_76
REMARK   48  A    between atoms: O_42  and  C_77
REMARK   49  A    between atoms: O_44  and  C_78
REMARK   50  A    between atoms: O_44  and  C_79
REMARK   51  A    between atoms: C_45  and  C_47
REMARK   52  A    between atoms: O_46  and  C_80
REMARK   53  A    between atoms: O_46  and  C_81
REMARK   54  A    between atoms: C_47  and  C_49
REMARK   55  A    between atoms: O_48  and  C_82
REMARK   56  A    between atoms: O_48  and  C_83
REMARK   57  A    between atoms: C_49  and  C_51
REMARK   58  A    between atoms: C_51  and  C_53
REMARK   59  A    between atoms: C_53  and  C_54
REMARK   60  A    between atoms: C_54  and  C_55
REMARK   61  A    between atoms: C_55  and  C_56
REMARK   62  A    between atoms: C_56  and  C_57
REMARK   63  A    between atoms: C_57  and  C_58
REMARK   64  A    between atoms: C_58  and  C_59
REMARK   65  A    between atoms: C_61  and  C_62
REMARK   66  A    between atoms: C_64  and  C_65
REMARK   67  A    between atoms: C_66  and  C_67
REMARK   68  A    between atoms: C_68  and  C_69
REMARK   69  A    between atoms: C_70  and  C_71
REMARK   70  A    between atoms: C_72  and  C_73
REMARK   71  A    between atoms: C_75  and  C_76
REMARK   72  A    between atoms: C_77  and  C_78
REMARK   73  A    between atoms: C_79  and  C_80
REMARK   74  A    between atoms: C_81  and  C_82
REMARK   75  A    between atoms: C_83  and  C_84
REMARK                            x       y       z     vdW  Elec       q    Type
REMARK                         _______ _______ _______ _____ _____    ______ ____
ROOT
ATOM      1  C   UNL     1      -8.988   3.056  12.866  0.00  0.00    +0.000 C 
ENDROOT
BRANCH   1   2
ATOM      2  C   UNL     1      -8.888   3.971  14.150  0.00  0.00    +0.000 C 
BRANCH   2   4
ATOM      3  O   UNL     1      -9.546   6.381  14.077  0.00  0.00    +0.000 OA
ATOM      4  C   UNL     1     -10.030   4.944  14.189  0.00  0.00    +0.000 C 
ATOM      5  C   UNL     1     -10.617   4.912  15.602  0.00  0.00    +0.000 C 
ATOM      6  C   UNL     1     -10.319   6.335  16.077  0.00  0.00    +0.000 C 
ATOM      7  C   UNL     1     -10.213   7.225  14.871  0.00  0.00    +0.000 C 
BRANCH   6   8
ATOM      8  O   UNL     1      -9.130   6.228  16.859  0.00  0.00    +0.000 OA
BRANCH   8   9
ATOM      9  C   UNL     1      -9.353   6.025  18.242  0.00  0.00    +0.000 C 
BRANCH   9  10
ATOM     10  C   UNL     1     -10.460   6.928  18.691  0.00  0.00    +0.000 C 
BRANCH  10  11
ATOM     11  O   UNL     1     -10.320   7.202  20.065  0.00  0.00    +0.000 OA
BRANCH  11  12
ATOM     12  C   UNL     1     -11.210   8.204  20.506  0.00  0.00    +0.000 C 
BRANCH  12  13
ATOM     13  C   UNL     1     -11.266   8.164  22.019  0.00  0.00    +0.000 C 
BRANCH  13  14
ATOM     14  O   UNL     1     -12.576   8.014  22.453  0.00  0.00    +0.000 OA
BRANCH  14  15
ATOM     15  C   UNL     1     -12.905   8.775  23.546  0.00  0.00    +0.000 C 
BRANCH  15  16
ATOM     16  C   UNL     1     -14.323   9.236  23.430  0.00  0.00    +0.000 C 
BRANCH  16  17
ATOM     17  O   UNL     1     -15.061   8.404  22.554  0.00  0.00    +0.000 OA
BRANCH  17  18
ATOM     18  C   UNL     1     -16.366   8.912  22.323  0.00  0.00    +0.000 C 
BRANCH  18  19
ATOM     19  C   UNL     1     -16.379   9.782  21.088  0.00  0.00    +0.000 C 
BRANCH  19  20
ATOM     20  O   UNL     1     -17.636   9.688  20.468  0.00  0.00    +0.000 OA
BRANCH  20  21
ATOM     21  C   UNL     1     -17.483   9.197  19.144  0.00  0.00    +0.000 C 
BRANCH  21  23
ATOM     22  O   UNL     1     -19.448   8.062  18.305  0.00  0.00    +0.000 OA
ATOM     23  C   UNL     1     -18.164   7.883  19.020  0.00  0.00    +0.000 C 
ENDBRANCH  21  23
ENDBRANCH  20  21
ENDBRANCH  19  20
ENDBRANCH  18  19
ENDBRANCH  17  18
ENDBRANCH  16  17
ENDBRANCH  15  16
ENDBRANCH  14  15
ENDBRANCH  13  14
ENDBRANCH  12  13
ENDBRANCH  11  12
ENDBRANCH  10  11
ENDBRANCH   9  10
ENDBRANCH   8   9
ENDBRANCH   6   8
BRANCH   5  24
ATOM     24  O   UNL     1     -12.008   4.764  15.509  0.00  0.00    +0.000 OA
BRANCH  24  25
ATOM     25  C   UNL     1     -12.376   3.507  15.045  0.00  0.00    +0.000 C 
BRANCH  25  26
ATOM     26  C   UNL     1     -13.918   3.425  14.954  0.00  0.00    +0.000 C 
BRANCH  26  27
ATOM     27  O   UNL     1     -14.251   2.688  13.784  0.00  0.00    +0.000 OA
BRANCH  27  28
ATOM     28  C   UNL     1     -15.315   3.265  13.123  0.00  0.00    +0.000 C 
BRANCH  28  29
ATOM     29  C   UNL     1     -15.111   3.073  11.619  0.00  0.00    +0.000 C 
BRANCH  29  30
ATOM     30  O   UNL     1     -16.229   3.572  10.971  0.00  0.00    +0.000 OA
BRANCH  30  31
ATOM     31  C   UNL     1     -16.137   4.958  10.708  0.00  0.00    +0.000 C 
BRANCH  31  32
ATOM     32  C   UNL     1     -16.063   5.156   9.247  0.00  0.00    +0.000 C 
BRANCH  32  33
ATOM     33  O   UNL     1     -16.851   6.283   8.921  0.00  0.00    +0.000 OA
BRANCH  33  34
ATOM     34  C   UNL     1     -16.392   6.867   7.751  0.00  0.00    +0.000 C 
BRANCH  34  35
ATOM     35  C   UNL     1     -15.847   5.771   6.836  0.00  0.00    +0.000 C 
BRANCH  35  36
ATOM     36  O   UNL     1     -16.908   5.312   6.011  0.00  0.00    +0.000 OA
BRANCH  36  37
ATOM     37  C   UNL     1     -16.874   3.922   5.914  0.00  0.00    +0.000 C 
BRANCH  37  39
ATOM     38  O   UNL     1     -18.956   4.332   6.954  0.00  0.00    +0.000 OA
ATOM     39  C   UNL     1     -18.012   3.315   6.691  0.00  0.00    +0.000 C 
ENDBRANCH  37  39
ENDBRANCH  36  37
ENDBRANCH  35  36
ENDBRANCH  34  35
ENDBRANCH  33  34
ENDBRANCH  32  33
ENDBRANCH  31  32
ENDBRANCH  30  31
ENDBRANCH  29  30
ENDBRANCH  28  29
ENDBRANCH  27  28
ENDBRANCH  26  27
ENDBRANCH  25  26
ENDBRANCH  24  25
ENDBRANCH   5  24
ENDBRANCH   2   4
ENDBRANCH   1   2
BRANCH   1  40
ATOM     40  O   UNL     1      -8.253   3.589  11.759  0.00  0.00    +0.000 OA
BRANCH  40  41
ATOM     41  C   UNL     1      -9.022   3.993  10.647  0.00  0.00    +0.000 C 
BRANCH  41  42
ATOM     42  C   UNL     1      -8.801   5.444  10.328  0.00  0.00    +0.000 C 
BRANCH  42  43
ATOM     43  O   UNL     1      -8.839   5.677   8.966  0.00  0.00    +0.000 OA
BRANCH  43  44
ATOM     44  C   UNL     1      -9.658   4.796   8.279  0.00  0.00    +0.000 C 
BRANCH  44  45
ATOM     45  C   UNL     1     -10.296   5.488   7.117  0.00  0.00    +0.000 C 
BRANCH  45  46
ATOM     46  O   UNL     1     -11.035   4.639   6.345  0.00  0.00    +0.000 OA
BRANCH  46  47
ATOM     47  C   UNL     1     -12.437   4.725   6.599  0.00  0.00    +0.000 C 
BRANCH  47  48
ATOM     48  C   UNL     1     -12.904   3.457   7.213  0.00  0.00    +0.000 C 
BRANCH  48  49
ATOM     49  O   UNL     1     -13.429   2.638   6.203  0.00  0.00    +0.000 OA
BRANCH  49  50
ATOM     50  C   UNL     1     -14.203   1.583   6.749  0.00  0.00    +0.000 C 
BRANCH  50  51
ATOM     51  C   UNL     1     -14.583   1.942   8.126  0.00  0.00    +0.000 C 
BRANCH  51  52
ATOM     52  O   UNL     1     -15.798   1.327   8.402  0.00  0.00    +0.000 OA
BRANCH  52  53
ATOM     53  C   UNL     1     -15.673   0.313   9.396  0.00  0.00    +0.000 C 
BRANCH  53  54
ATOM     54  C   UNL     1     -16.972   0.088  10.140  0.00  0.00    +0.000 C 
ATOM     55  O   UNL     1     -16.779  -0.880  11.167  0.00  0.00    +0.000 OA
ENDBRANCH  53  54
ENDBRANCH  52  53
ENDBRANCH  51  52
ENDBRANCH  50  51
ENDBRANCH  49  50
ENDBRANCH  48  49
ENDBRANCH  47  48
ENDBRANCH  46  47
ENDBRANCH  45  46
ENDBRANCH  44  45
ENDBRANCH  43  44
ENDBRANCH  42  43
ENDBRANCH  41  42
ENDBRANCH  40  41
ENDBRANCH   1  40
BRANCH   1  56
ATOM     56  C   UNL     1     -10.400   2.931  12.414  0.00  0.00    +0.000 C 
BRANCH  56  57
ATOM     57  O   UNL     1     -10.749   1.632  12.709  0.00  0.00    +0.000 OA
BRANCH  57  58
ATOM     58  C   UNL     1     -12.007   1.279  12.101  0.00  0.00    +0.000 C 
BRANCH  58  59
ATOM     59  C   UNL     1     -12.341  -0.172  12.417  0.00  0.00    +0.000 C 
BRANCH  59  60
ATOM     60  O   UNL     1     -13.728  -0.352  12.510  0.00  0.00    +0.000 OA
BRANCH  60  61
ATOM     61  C   UNL     1     -14.152  -0.834  13.774  0.00  0.00    +0.000 C 
BRANCH  61  62
ATOM     62  C   UNL     1     -13.142  -0.568  14.884  0.00  0.00    +0.000 C 
BRANCH  62  63
ATOM     63  O   UNL     1     -13.797  -0.618  16.134  0.00  0.00    +0.000 OA
BRANCH  63  64
ATOM     64  C   UNL     1     -13.347   0.401  16.993  0.00  0.00    +0.000 C 
BRANCH  64  65
ATOM     65  C   UNL     1     -11.827   0.362  17.053  0.00  0.00    +0.000 C 
BRANCH  65  66
ATOM     66  O   UNL     1     -11.380   1.561  17.678  0.00  0.00    +0.000 OA
BRANCH  66  67
ATOM     67  C   UNL     1     -12.388   2.216  18.363  0.00  0.00    +0.000 C 
BRANCH  67  68
ATOM     68  C   UNL     1     -11.856   3.536  18.876  0.00  0.00    +0.000 C 
BRANCH  68  69
ATOM     69  O   UNL     1     -11.203   3.273  20.091  0.00  0.00    +0.000 OA
BRANCH  69  70
ATOM     70  C   UNL     1     -11.611   4.106  21.110  0.00  0.00    +0.000 C 
BRANCH  70  71
ATOM     71  C   UNL     1     -10.405   4.550  21.914  0.00  0.00    +0.000 C 
BRANCH  71  72
ATOM     72  O   UNL     1      -9.291   4.103  21.191  0.00  0.00    +0.000 OA
BRANCH  72  74
ATOM     73  O   UNL     1      -7.996   5.238  22.581  0.00  0.00    +0.000 OA
ATOM     74  C   UNL     1      -8.120   4.321  21.839  0.00  0.00    +0.000 C 
BRANCH  74  75
ATOM     75  C   UNL     1      -7.049   3.351  21.561  0.00  0.00    +0.000 C 
BRANCH  75  76
ATOM     76  C   UNL     1      -6.132   3.265  22.795  0.00  0.00    +0.000 C 
BRANCH  76  77
ATOM     77  C   UNL     1      -4.742   3.749  22.429  0.00  0.00    +0.000 C 
BRANCH  77  78
ATOM     78  C   UNL     1      -3.930   3.949  23.700  0.00  0.00    +0.000 C 
BRANCH  78  79
ATOM     79  C   UNL     1      -2.490   4.173  23.309  0.00  0.00    +0.000 C 
BRANCH  79  80
ATOM     80  C   UNL     1      -1.694   4.395  24.600  0.00  0.00    +0.000 C 
BRANCH  80  81
ATOM     81  C   UNL     1      -1.582   5.880  24.851  0.00  0.00    +0.000 C 
BRANCH  81  82
ATOM     82  C   UNL     1      -0.244   6.175  25.523  0.00  0.00    +0.000 C 
BRANCH  82  83
ATOM     83  C   UNL     1       0.668   6.973  24.602  0.00  0.00    +0.000 C 
BRANCH  83  84
ATOM     84  C   UNL     1       0.292   8.423  24.547  0.00  0.00    +0.000 C 
ATOM     85  C   UNL     1       1.489   9.293  24.303  0.00  0.00    +0.000 C 
ENDBRANCH  83  84
ENDBRANCH  82  83
ENDBRANCH  81  82
ENDBRANCH  80  81
ENDBRANCH  79  80
ENDBRANCH  78  79
ENDBRANCH  77  78
ENDBRANCH  76  77
ENDBRANCH  75  76
ENDBRANCH  74  75
ENDBRANCH  72  74
ENDBRANCH  71  72
ENDBRANCH  70  71
ENDBRANCH  69  70
ENDBRANCH  68  69
ENDBRANCH  67  68
ENDBRANCH  66  67
ENDBRANCH  65  66
ENDBRANCH  64  65
ENDBRANCH  63  64
ENDBRANCH  62  63
ENDBRANCH  61  62
ENDBRANCH  60  61
ENDBRANCH  59  60
ENDBRANCH  58  59
ENDBRANCH  57  58
ENDBRANCH  56  57
ENDBRANCH   1  56
TORSDOF 75
BEGIN_RES LEU A  10
REMARK  2 active torsions:
REMARK  status: ('A' for Active; 'I' for Inactive)
REMARK    1  A    between atoms: CA   and  CB  
REMARK    2  A    between atoms: CB   and  CG  
ROOT
ATOM      1  CA  LEU A  10     -10.775  -4.871   5.898  1.00 25.14     0.177 C 
ENDROOT
BRANCH   1   2
ATOM      2  CB  LEU A  10     -12.191  -4.387   6.226  1.00 17.87     0.038 C 
BRANCH   2   3
ATOM      3  CG  LEU A  10     -12.501  -2.967   5.747  1.00 24.95    -0.020 C 
ATOM      4  CD2 LEU A  10     -13.639  -2.423   6.543  1.00 26.38     0.009 C 
ATOM      5  CD1 LEU A  10     -12.831  -2.954   4.264  1.00 28.12     0.009 C 
ENDBRANCH   2   3
ENDBRANCH   1   2
END_RES LEU A  10
BEGIN_RES CYS A  12
REMARK  2 active torsions:
REMARK  status: ('A' for Active; 'I' for Inactive)
REMARK    3  A    between atoms: CA   and  CB  
REMARK    4  A    between atoms: CB   and  SG  
ROOT
ATOM      6  CA  CYS A  12      -8.555   0.470   8.750  1.00 23.16     0.185 C 
ENDROOT
BRANCH   6   7
ATOM      7  CB  CYS A  12      -9.828   0.763   9.555  1.00 20.43     0.105 C 
BRANCH   7   8
ATOM      8  SG  CYS A  12     -11.397   0.268   8.779  1.00 24.64    -0.180 SA
ATOM      9  H04 CYS A  12     -11.692   1.117   7.786  1.00 24.64     0.101 HD
ENDBRANCH   7   8
ENDBRANCH   6   7
END_RES CYS A  12
BEGIN_RES GLN A  14
REMARK  3 active torsions:
REMARK  status: ('A' for Active; 'I' for Inactive)
REMARK    5  A    between atoms: CA   and  CB  
REMARK    6  A    between atoms: CB   and  CG  
REMARK    7  A    between atoms: CG   and  CD  
REMARK       I    between atoms: CD   and  NE2 
ROOT
ATOM     10  CA  GLN A  14      -4.645   5.402  11.377  1.00 10.43     0.177 C 
ENDROOT
BRANCH  10  11
ATOM     11  CB  GLN A  14      -5.541   5.549  12.608  1.00 14.45     0.044 C 
BRANCH  11  12
ATOM     12  CG  GLN A  14      -6.563   6.657  12.499  1.00 13.74     0.105 C 
BRANCH  12  13
ATOM     13  CD  GLN A  14      -5.926   8.025  12.428  1.00 16.29     0.215 C 
ATOM     14  NE2 GLN A  14      -6.483   8.889  11.607  1.00  8.57    -0.370 N 
ATOM     15  H06 GLN A  14      -6.101   9.819  11.519  1.00  8.57     0.159 HD
ATOM     16  H07 GLN A  14      -7.292   8.621  11.065  1.00  8.57     0.159 HD
ATOM     17  OE1 GLN A  14      -4.949   8.300  13.106  1.00 23.55    -0.274 OA
ENDBRANCH  12  13
ENDBRANCH  11  12
ENDBRANCH  10  11
END_RES GLN A  14
BEGIN_RES SER A  16
REMARK  2 active torsions:
REMARK  status: ('A' for Active; 'I' for Inactive)
REMARK    8  A    between atoms: CA   and  CB  
REMARK    9  A    between atoms: CB   and  OG  
ROOT
ATOM     18  CA  SER A  16      -1.305  10.019  14.282  1.00  2.34     0.200 C 
ENDROOT
BRANCH  18  19
ATOM     19  CB  SER A  16      -2.242   9.935  15.479  1.00  3.12     0.199 C 
BRANCH  19  20
ATOM     20  OG  SER A  16      -3.444   9.278  15.118  1.00  1.00    -0.398 OA
ATOM     21  H04 SER A  16      -3.660   9.483  14.206  1.00  1.00     0.209 HD
ENDBRANCH  19  20
ENDBRANCH  18  19
END_RES SER A  16
BEGIN_RES LEU A  32
REMARK  2 active torsions:
REMARK  status: ('A' for Active; 'I' for Inactive)
REMARK   10  A    between atoms: CA   and  CB  
REMARK   11  A    between atoms: CB   and  CG  
ROOT
ATOM     22  CA  LEU A  32     -10.272  -4.106   1.587  1.00 16.16     0.177 C 
ENDROOT
BRANCH  22  23
ATOM     23  CB  LEU A  32     -11.613  -3.858   0.880  1.00 12.35     0.038 C 
BRANCH  23  24
ATOM     24  CG  LEU A  32     -12.593  -5.032   1.079  1.00  9.77    -0.020 C 
ATOM     25  CD1 LEU A  32     -14.015  -4.573   0.858  1.00  4.35     0.009 C 
ATOM     26  CD2 LEU A  32     -12.272  -6.165   0.140  1.00 10.60     0.009 C 
ENDBRANCH  23  24
ENDBRANCH  22  23
END_RES LEU A  32
BEGIN_RES HIS A  38
REMARK  2 active torsions:
REMARK  status: ('A' for Active; 'I' for Inactive)
REMARK   12  A    between atoms: CA   and  CB  
REMARK   13  A    between atoms: CB   and  CG  
ROOT
ATOM     27  CA  HIS A  38     -10.959   4.941   1.621  1.00 16.94     0.182 C 
ENDROOT
BRANCH  27  28
ATOM     28  CB  HIS A  38     -11.810   4.840   2.881  1.00 15.47     0.095 C 
BRANCH  28  29
ATOM     29  CG  HIS A  38     -13.281   4.839   2.617  1.00 18.62     0.053 A 
ATOM     30  CD2 HIS A  38     -14.090   5.789   2.090  1.00 15.06     0.116 A 
ATOM     31  NE2 HIS A  38     -15.354   5.260   2.042  1.00 18.12    -0.359 N 
ATOM     32  CE1 HIS A  38     -15.325   4.032   2.523  1.00 14.78     0.207 A 
ATOM     33  H06 HIS A  38     -16.175   5.735   1.695  1.00 18.12     0.166 HD
ATOM     34  ND1 HIS A  38     -14.087   3.753   2.878  1.00 16.58    -0.247 NA
ENDBRANCH  28  29
ENDBRANCH  27  28
END_RES HIS A  38
BEGIN_RES TRP A  63
REMARK  2 active torsions:
REMARK  status: ('A' for Active; 'I' for Inactive)
REMARK   14  A    between atoms: CA   and  CB  
REMARK   15  A    between atoms: CB   and  CG  
ROOT
ATOM     35  CA  TRP A  63     -22.437   6.257   6.543  1.00 27.04     0.181 C 
ENDROOT
BRANCH  35  36
ATOM     36  CB  TRP A  63     -22.360   6.642   5.068  1.00 31.37     0.075 C 
BRANCH  36  37
ATOM     37  CG  TRP A  63     -20.974   6.552   4.466  1.00 34.37    -0.028 A 
ATOM     38  CD2 TRP A  63     -20.235   7.602   3.827  1.00 33.79    -0.002 A 
ATOM     39  CE3 TRP A  63     -20.515   8.933   3.509  1.00 32.99     0.014 A 
ATOM     40  CE2 TRP A  63     -18.969   7.076   3.489  1.00 35.84     0.042 A 
ATOM     41  CZ3 TRP A  63     -19.539   9.686   2.872  1.00 32.93     0.001 A 
ATOM     42  CH2 TRP A  63     -18.290   9.134   2.548  1.00 39.24     0.002 A 
ATOM     43  CZ2 TRP A  63     -17.987   7.833   2.849  1.00 37.99     0.030 A 
ATOM     44  NE1 TRP A  63     -18.946   5.772   3.901  1.00 37.98    -0.365 N 
ATOM     45  H06 TRP A  63     -18.169   5.136   3.795  1.00 37.98     0.165 HD
ATOM     46  CD1 TRP A  63     -20.153   5.468   4.483  1.00 38.16     0.096 A 
ENDBRANCH  36  37
ENDBRANCH  35  36
END_RES TRP A  63
BEGIN_RES LEU A  66
REMARK  2 active torsions:
REMARK  status: ('A' for Active; 'I' for Inactive)
REMARK   16  A    between atoms: CA   and  CB  
REMARK   17  A    between atoms: CB   and  CG  
ROOT
ATOM     47  CA  LEU A  66     -20.004   6.489  11.120  1.00 10.90     0.177 C 
ENDROOT
BRANCH  47  48
ATOM     48  CB  LEU A  66     -19.626   5.453  10.069  1.00 13.57     0.038 C 
BRANCH  48  49
ATOM     49  CG  LEU A  66     -19.592   3.990  10.509  1.00  8.73    -0.020 C 
ATOM     50  CD1 LEU A  66     -19.641   3.886  12.012  1.00 14.23     0.009 C 
ATOM     51  CD2 LEU A  66     -20.776   3.281   9.903  1.00  1.92     0.009 C 
ENDBRANCH  48  49
ENDBRANCH  47  48
END_RES LEU A  66
BEGIN_RES PHE A  70
REMARK  2 active torsions:
REMARK  status: ('A' for Active; 'I' for Inactive)
REMARK   18  A    between atoms: CA   and  CB  
REMARK   19  A    between atoms: CB   and  CG  
ROOT
ATOM     52  CA  PHE A  70     -14.974   9.434  13.165  1.00  8.78     0.180 C 
ENDROOT
BRANCH  52  53
ATOM     53  CB  PHE A  70     -14.707   9.132  11.681  1.00  6.33     0.073 C 
BRANCH  53  54
ATOM     54  CG  PHE A  70     -13.937   7.858  11.459  1.00  3.42    -0.056 A 
ATOM     55  CD1 PHE A  70     -13.541   7.067  12.526  1.00 13.88     0.007 A 
ATOM     56  CE1 PHE A  70     -12.781   5.902  12.314  1.00 12.71     0.001 A 
ATOM     57  CZ  PHE A  70     -12.417   5.528  11.020  1.00  4.21     0.000 A 
ATOM     58  CE2 PHE A  70     -12.808   6.308   9.948  1.00  2.83     0.001 A 
ATOM     59  CD2 PHE A  70     -13.567   7.470  10.171  1.00  1.00     0.007 A 
ENDBRANCH  53  54
ENDBRANCH  52  53
END_RES PHE A  70
BEGIN_RES TYR A  73
REMARK  3 active torsions:
REMARK  status: ('A' for Active; 'I' for Inactive)
REMARK   20  A    between atoms: CA   and  CB  
REMARK   21  A    between atoms: CB   and  CG  
REMARK   22  A    between atoms: CZ   and  OH  
ROOT
ATOM     60  CA  TYR A  73     -13.212  10.166  17.260  1.00 12.17     0.180 C 
ENDROOT
BRANCH  60  61
ATOM     61  CB  TYR A  73     -13.301   8.846  16.517  1.00 12.84     0.073 C 
BRANCH  61  62
ATOM     62  CG  TYR A  73     -13.819   7.735  17.361  1.00 15.89    -0.056 A 
ATOM     63  CD1 TYR A  73     -14.126   6.509  16.814  1.00 16.00     0.010 A 
ATOM     64  CE1 TYR A  73     -14.640   5.476  17.597  1.00 13.55     0.037 A 
ATOM     65  CZ  TYR A  73     -14.847   5.689  18.946  1.00 18.13     0.065 A 
ATOM     66  CE2 TYR A  73     -14.548   6.903  19.518  1.00 15.89     0.037 A 
ATOM     67  CD2 TYR A  73     -14.035   7.920  18.722  1.00 21.86     0.010 A 
BRANCH  65  68
ATOM     68  OH  TYR A  73     -15.347   4.684  19.737  1.00 12.12    -0.361 OA
ATOM     69  H08 TYR A  73     -15.969   4.156  19.231  1.00 12.12     0.217 HD
ENDBRANCH  65  68
ENDBRANCH  61  62
ENDBRANCH  60  61
END_RES TYR A  73
BEGIN_RES PHE A  77
REMARK  2 active torsions:
REMARK  status: ('A' for Active; 'I' for Inactive)
REMARK   23  A    between atoms: CA   and  CB  
REMARK   24  A    between atoms: CB   and  CG  
ROOT
ATOM     70  CA  PHE A  77      -8.400  10.581  20.110  1.00 17.17     0.180 C 
ENDROOT
BRANCH  70  71
ATOM     71  CB  PHE A  77      -8.228   9.750  18.851  1.00 10.44     0.073 C 
BRANCH  71  72
ATOM     72  CG  PHE A  77      -7.154   8.713  18.955  1.00  6.07    -0.056 A 
ATOM     73  CD2 PHE A  77      -7.008   7.970  20.104  1.00  9.61     0.007 A 
ATOM     74  CE2 PHE A  77      -6.015   7.003  20.209  1.00  1.00     0.001 A 
ATOM     75  CZ  PHE A  77      -5.157   6.776  19.146  1.00  1.92     0.000 A 
ATOM     76  CE1 PHE A  77      -5.290   7.510  17.989  1.00  9.25     0.001 A 
ATOM     77  CD1 PHE A  77      -6.290   8.478  17.898  1.00  9.63     0.007 A 
ENDBRANCH  71  72
ENDBRANCH  70  71
END_RES PHE A  77
BEGIN_RES LEU A  96
REMARK  2 active torsions:
REMARK  status: ('A' for Active; 'I' for Inactive)
REMARK   25  A    between atoms: CA   and  CB  
REMARK   26  A    between atoms: CB   and  CG  
ROOT
ATOM     78  CA  LEU A  96       0.717   6.481  17.359  1.00 16.08     0.177 C 
ENDROOT
BRANCH  78  79
ATOM     79  CB  LEU A  96      -0.370   7.101  18.230  1.00 18.83     0.038 C 
BRANCH  79  80
ATOM     80  CG  LEU A  96      -0.211   6.838  19.727  1.00 19.03    -0.020 C 
ATOM     81  CD1 LEU A  96       0.461   8.032  20.364  1.00 28.17     0.009 C 
ATOM     82  CD2 LEU A  96      -1.563   6.647  20.375  1.00 22.01     0.009 C 
ENDBRANCH  79  80
ENDBRANCH  78  79
END_RES LEU A  96
BEGIN_RES VAL A  98
REMARK  1 active torsions:
REMARK  status: ('A' for Active; 'I' for Inactive)
REMARK   27  A    between atoms: CA   and  CB  
ROOT
ATOM     83  CA  VAL A  98      -3.928   2.082  14.897  1.00 19.83     0.180 C 
ENDROOT
BRANCH  83  84
ATOM     84  CB  VAL A  98      -5.203   2.807  15.281  1.00 17.87     0.009 C 
ATOM     85  CG2 VAL A  98      -4.899   4.243  15.620  1.00 29.90     0.012 C 
ATOM     86  CG1 VAL A  98      -5.852   2.104  16.454  1.00 14.79     0.012 C 
ENDBRANCH  83  84
END_RES VAL A  98
BEGIN_RES ASN A 112
REMARK  2 active torsions:
REMARK  status: ('A' for Active; 'I' for Inactive)
REMARK   28  A    between atoms: CA   and  CB  
REMARK   29  A    between atoms: CB   and  CG  
REMARK       I    between atoms: CG   and  ND2 
ROOT
ATOM     87  CA  ASN A 112     -11.790  -8.793  14.069  1.00 37.70     0.185 C 
ENDROOT
BRANCH  87  88
ATOM     88  CB  ASN A 112     -12.992  -7.945  14.465  1.00 26.24     0.137 C 
BRANCH  88  89
ATOM     89  CG  ASN A 112     -13.944  -8.664  15.394  1.00 21.77     0.217 C 
ATOM     90  ND2 ASN A 112     -13.645  -8.619  16.692  1.00  9.31    -0.370 N 
ATOM     91  H04 ASN A 112     -14.241  -9.082  17.364  1.00  9.31     0.159 HD
ATOM     92  H05 ASN A 112     -12.823  -8.122  17.004  1.00  9.31     0.159 HD
ATOM     93  OD1 ASN A 112     -14.935  -9.259  14.954  1.00 21.61    -0.274 OA
ENDBRANCH  88  89
ENDBRANCH  87  88
END_RES ASN A 112
BEGIN_RES PHE A 114
REMARK  2 active torsions:
REMARK  status: ('A' for Active; 'I' for Inactive)
REMARK   30  A    between atoms: CA   and  CB  
REMARK   31  A    between atoms: CB   and  CG  
ROOT
ATOM     94  CA  PHE A 114      -7.754  -3.619  17.012  1.00 26.06     0.180 C 
ENDROOT
BRANCH  94  95
ATOM     95  CB  PHE A 114      -8.890  -3.080  17.867  1.00 19.95     0.073 C 
BRANCH  95  96
ATOM     96  CG  PHE A 114      -8.703  -1.653  18.269  1.00 17.65    -0.056 A 
ATOM     97  CD1 PHE A 114      -9.011  -1.229  19.558  1.00 13.01     0.007 A 
ATOM     98  CE1 PHE A 114      -8.866   0.103  19.924  1.00  6.74     0.001 A 
ATOM     99  CZ  PHE A 114      -8.404   1.033  18.998  1.00  6.27     0.000 A 
ATOM    100  CE2 PHE A 114      -8.093   0.623  17.712  1.00 17.36     0.001 A 
ATOM    101  CD2 PHE A 114      -8.243  -0.720  17.350  1.00 18.39     0.007 A 
ENDBRANCH  95  96
ENDBRANCH  94  95
END_RES PHE A 114
BEGIN_RES VAL A 116
REMARK  1 active torsions:
REMARK  status: ('A' for Active; 'I' for Inactive)
REMARK   32  A    between atoms: CA   and  CB  
ROOT
ATOM    102  CA  VAL A 116      -2.467   0.283  18.565  1.00 13.48     0.180 C 
ENDROOT
BRANCH 102 103
ATOM    103  CB  VAL A 116      -3.101   1.238  19.599  1.00 20.86     0.009 C 
ATOM    104  CG1 VAL A 116      -2.984   2.681  19.102  1.00 25.01     0.012 C 
ATOM    105  CG2 VAL A 116      -4.537   0.858  19.873  1.00 25.34     0.012 C 
ENDBRANCH 102 103
END_RES VAL A 116
BEGIN_RES ILE A 123
REMARK  2 active torsions:
REMARK  status: ('A' for Active; 'I' for Inactive)
REMARK   33  A    between atoms: CA   and  CB  
REMARK   34  A    between atoms: CB   and  CG1 
ROOT
ATOM    106  CA  ILE A 123       1.557  -1.626  23.222  1.00 15.07     0.180 C 
ENDROOT
BRANCH 106 107
ATOM    107  CB  ILE A 123       1.697  -0.112  23.461  1.00 14.41     0.013 C 
ATOM    108  CG2 ILE A 123       3.114   0.214  23.898  1.00 18.35     0.012 C 
BRANCH 107 109
ATOM    109  CG1 ILE A 123       1.346   0.660  22.192  1.00 15.23     0.002 C 
ATOM    110  CD1 ILE A 123       0.231   1.661  22.380  1.00 14.67     0.005 C 
ENDBRANCH 107 109
ENDBRANCH 106 107
END_RES ILE A 123
BEGIN_RES LEU A 124
REMARK  2 active torsions:
REMARK  status: ('A' for Active; 'I' for Inactive)
REMARK   35  A    between atoms: CA   and  CB  
REMARK   36  A    between atoms: CB   and  CG  
ROOT
ATOM    111  CA  LEU A 124      -2.057  -2.686  23.524  1.00 11.86     0.177 C 
ENDROOT
BRANCH 111 112
ATOM    112  CB  LEU A 124      -2.698  -1.652  24.429  1.00 14.60     0.038 C 
BRANCH 112 113
ATOM    113  CG  LEU A 124      -2.595  -0.247  23.855  1.00 16.19    -0.020 C 
ATOM    114  CD1 LEU A 124      -3.993   0.213  23.400  1.00 22.07     0.009 C 
ATOM    115  CD2 LEU A 124      -2.008   0.678  24.891  1.00  9.12     0.009 C 
ENDBRANCH 112 113
ENDBRANCH 111 112
END_RES LEU A 124
BEGIN_RES PHE A 126
REMARK  2 active torsions:
REMARK  status: ('A' for Active; 'I' for Inactive)
REMARK   37  A    between atoms: CA   and  CB  
REMARK   38  A    between atoms: CB   and  CG  
ROOT
ATOM    116  CA  PHE A 126      -8.784  -4.792  22.233  1.00 23.15     0.180 C 
ENDROOT
BRANCH 116 117
ATOM    117  CB  PHE A 126      -9.823  -4.011  21.461  1.00 20.65     0.073 C 
BRANCH 117 118
ATOM    118  CG  PHE A 126     -10.932  -3.514  22.303  1.00 23.65    -0.056 A 
ATOM    119  CD2 PHE A 126     -12.209  -4.029  22.164  1.00 36.63     0.007 A 
ATOM    120  CE2 PHE A 126     -13.260  -3.558  22.964  1.00 36.27     0.001 A 
ATOM    121  CZ  PHE A 126     -13.022  -2.566  23.903  1.00 18.06     0.000 A 
ATOM    122  CE1 PHE A 126     -11.750  -2.051  24.046  1.00  5.50     0.001 A 
ATOM    123  CD1 PHE A 126     -10.709  -2.528  23.248  1.00 15.29     0.007 A 
ENDBRANCH 117 118
ENDBRANCH 116 117
END_RES PHE A 126
BEGIN_RES TRP A 131
REMARK  2 active torsions:
REMARK  status: ('A' for Active; 'I' for Inactive)
REMARK   39  A    between atoms: CA   and  CB  
REMARK   40  A    between atoms: CB   and  CG  
ROOT
ATOM    124  CA  TRP A 131      -8.096  -3.335  26.542  1.00 14.52     0.181 C 
ENDROOT
BRANCH 124 125
ATOM    125  CB  TRP A 131      -7.651  -1.877  26.607  1.00 13.06     0.075 C 
BRANCH 125 126
ATOM    126  CG  TRP A 131      -7.953  -1.079  25.358  1.00 16.97    -0.028 A 
ATOM    127  CD2 TRP A 131      -9.004  -0.124  25.190  1.00 11.34    -0.002 A 
ATOM    128  CE2 TRP A 131      -8.913   0.380  23.878  1.00  5.87     0.042 A 
ATOM    129  CE3 TRP A 131     -10.018   0.353  26.028  1.00  3.80     0.014 A 
ATOM    130  CZ2 TRP A 131      -9.796   1.341  23.384  1.00  1.35     0.030 A 
ATOM    131  NE1 TRP A 131      -7.855  -0.240  23.272  1.00 13.90    -0.365 N 
ATOM    132  CH2 TRP A 131     -10.780   1.792  24.228  1.00  1.00     0.002 A 
ATOM    133  CZ3 TRP A 131     -10.898   1.304  25.543  1.00  1.00     0.001 A 
ATOM    134  CD1 TRP A 131      -7.282  -1.115  24.166  1.00 17.22     0.096 A 
ATOM    135  H07 TRP A 131      -7.545  -0.082  22.324  1.00 13.90     0.165 HD
ENDBRANCH 125 126
ENDBRANCH 124 125
END_RES TRP A 131
BEGIN_RES LEU A 148
REMARK  2 active torsions:
REMARK  status: ('A' for Active; 'I' for Inactive)
REMARK   41  A    between atoms: CA   and  CB  
REMARK   42  A    between atoms: CB   and  CG  
ROOT
ATOM    136  CA  LEU A 148      -9.018   3.259  29.295  1.00 16.99     0.177 C 
ENDROOT
BRANCH 136 137
ATOM    137  CB  LEU A 148      -8.166   2.574  28.236  1.00  6.39     0.038 C 
BRANCH 137 138
ATOM    138  CG  LEU A 148      -7.964   3.198  26.870  1.00  1.00    -0.020 C 
ATOM    139  CD2 LEU A 148      -6.527   3.585  26.681  1.00  1.00     0.009 C 
ATOM    140  CD1 LEU A 148      -8.863   4.417  26.767  1.00  2.71     0.009 C 
ENDBRANCH 137 138
ENDBRANCH 136 137
END_RES LEU A 148
BEGIN_RES THR A 154
REMARK  2 active torsions:
REMARK  status: ('A' for Active; 'I' for Inactive)
REMARK   43  A    between atoms: CA   and  CB  
REMARK   44  A    between atoms: CB   and  OG1 
ROOT
ATOM    141  CA  THR A 154     -15.990   3.959  24.426  1.00 20.45     0.205 C 
ENDROOT
BRANCH 141 142
ATOM    142  CB  THR A 154     -14.777   4.829  24.694  1.00 16.79     0.146 C 
ATOM    143  CG2 THR A 154     -13.557   3.964  24.943  1.00 20.24     0.042 C 
BRANCH 142 144
ATOM    144  OG1 THR A 154     -14.534   5.653  23.547  1.00 18.84    -0.393 OA
ATOM    145  H06 THR A 154     -13.588   5.769  23.430  1.00 18.84     0.210 HD
ENDBRANCH 142 144
ENDBRANCH 141 142
END_RES THR A 154
BEGIN_RES VAL A 158
REMARK  1 active torsions:
REMARK  status: ('A' for Active; 'I' for Inactive)
REMARK   45  A    between atoms: CA   and  CB  
ROOT
ATOM    146  CA  VAL A 158     -15.487  -0.189  19.892  1.00 15.49     0.180 C 
ENDROOT
BRANCH 146 147
ATOM    147  CB  VAL A 158     -14.291  -0.273  20.822  1.00  6.52     0.009 C 
ATOM    148  CG1 VAL A 158     -13.190  -1.107  20.210  1.00  1.00     0.012 C 
ATOM    149  CG2 VAL A 158     -13.807   1.115  21.108  1.00  5.99     0.012 C 
ENDBRANCH 146 147
END_RES VAL A 158
BEGIN_RES LEU A 161
REMARK  2 active torsions:
REMARK  status: ('A' for Active; 'I' for Inactive)
REMARK   46  A    between atoms: CA   and  CB  
REMARK   47  A    between atoms: CB   and  CG  
ROOT
ATOM    150  CA  LEU A 161     -18.031  -1.858  15.935  1.00 13.31     0.177 C 
ENDROOT
BRANCH 150 151
ATOM    151  CB  LEU A 161     -17.046  -0.706  16.001  1.00 14.13     0.038 C 
BRANCH 151 152
ATOM    152  CG  LEU A 161     -17.585   0.665  15.613  1.00 19.39    -0.020 C 
ATOM    153  CD2 LEU A 161     -17.595   0.817  14.111  1.00 27.75     0.009 C 
ATOM    154  CD1 LEU A 161     -16.712   1.724  16.232  1.00 18.59     0.009 C 
ENDBRANCH 151 152
ENDBRANCH 150 151
END_RES LEU A 161
BEGIN_RES GLN A 168
REMARK  3 active torsions:
REMARK  status: ('A' for Active; 'I' for Inactive)
REMARK   48  A    between atoms: CA   and  CB  
REMARK   49  A    between atoms: CB   and  CG  
REMARK   50  A    between atoms: CG   and  CD  
REMARK       I    between atoms: CD   and  NE2 
ROOT
ATOM    155  CA  GLN A 168     -22.035  -6.020   8.155  1.00 30.94     0.177 C 
ENDROOT
BRANCH 155 156
ATOM    156  CB  GLN A 168     -23.054  -5.218   8.946  1.00 41.76     0.044 C 
BRANCH 156 157
ATOM    157  CG  GLN A 168     -24.481  -5.428   8.519  1.00 61.20     0.105 C 
BRANCH 157 158
ATOM    158  CD  GLN A 168     -24.981  -4.297   7.642  1.00 75.49     0.215 C 
ATOM    159  NE2 GLN A 168     -24.800  -4.444   6.328  1.00 85.00    -0.370 N 
ATOM    160  H06 GLN A 168     -25.110  -3.723   5.692  1.00 85.00     0.159 HD
ATOM    161  H07 GLN A 168     -24.354  -5.277   5.970  1.00 85.00     0.159 HD
ATOM    162  OE1 GLN A 168     -25.520  -3.296   8.135  1.00 73.64    -0.274 OA
ENDBRANCH 157 158
ENDBRANCH 156 157
ENDBRANCH 155 156
END_RES GLN A 168
ENDMDL
MODEL 3
REMARK VINA RESULT:      -7.0      1.820      8.930
REMARK  Name = human_CD1d_Tween20_pred.rank_0
REMARK  75 active torsions:
REMARK  status: ('A' for Active; 'I' for Inactive)
REMARK    1  A    between atoms: C_1  and  C_3
REMARK    2  A    between atoms: C_3  and  O_4
REMARK    3  A    between atoms: O_4  and  C_5
REMARK    4  A    between atoms: C_5  and  C_7
REMARK    5  A    between atoms: O_6  and  C_7
REMARK    6  A    between atoms: O_6  and  C_9
REMARK    7  A    between atoms: O_8  and  C_11
REMARK    8  A    between atoms: O_8  and  C_13
REMARK    9  A    between atoms: C_9  and  C_11
REMARK   10  A    between atoms: O_10  and  C_15
REMARK   11  A    between atoms: O_10  and  C_17
REMARK   12  A    between atoms: O_12  and  C_19
REMARK   13  A    between atoms: O_12  and  C_21
REMARK   14  A    between atoms: C_13  and  C_15
REMARK   15  A    between atoms: O_14  and  C_23
REMARK   16  A    between atoms: O_14  and  C_25
REMARK   17  A    between atoms: O_16  and  C_27
REMARK   18  A    between atoms: O_16  and  C_29
REMARK   19  A    between atoms: C_17  and  C_19
REMARK   20  A    between atoms: O_18  and  C_31
REMARK   21  A    between atoms: O_18  and  C_33
REMARK   22  A    between atoms: O_20  and  C_35
REMARK   23  A    between atoms: O_20  and  C_37
REMARK   24  A    between atoms: C_21  and  C_23
REMARK   25  A    between atoms: C_21  and  C_61
REMARK   26  A    between atoms: O_22  and  C_39
REMARK   27  A    between atoms: O_22  and  C_41
REMARK   28  A    between atoms: O_24  and  C_43
REMARK   29  A    between atoms: O_24  and  C_45
REMARK   30  A    between atoms: C_25  and  C_27
REMARK   31  A    between atoms: O_28  and  C_63
REMARK   32  A    between atoms: O_28  and  C_64
REMARK   33  A    between atoms: C_29  and  C_31
REMARK   34  A    between atoms: O_30  and  C_65
REMARK   35  A    between atoms: O_30  and  C_66
REMARK   36  A    between atoms: O_32  and  C_67
REMARK   37  A    between atoms: O_32  and  C_68
REMARK   38  A    between atoms: C_33  and  C_35
REMARK   39  A    between atoms: O_34  and  C_69
REMARK   40  A    between atoms: O_34  and  C_70
REMARK   41  A    between atoms: O_36  and  C_71
REMARK   42  A    between atoms: O_36  and  C_72
REMARK   43  A    between atoms: C_37  and  C_39
REMARK   44  A    between atoms: O_40  and  C_74
REMARK   45  A    between atoms: O_40  and  C_75
REMARK   46  A    between atoms: C_41  and  C_43
REMARK   47  A    between atoms: O_42  and  C_76
REMARK   48  A    between atoms: O_42  and  C_77
REMARK   49  A    between atoms: O_44  and  C_78
REMARK   50  A    between atoms: O_44  and  C_79
REMARK   51  A    between atoms: C_45  and  C_47
REMARK   52  A    between atoms: O_46  and  C_80
REMARK   53  A    between atoms: O_46  and  C_81
REMARK   54  A    between atoms: C_47  and  C_49
REMARK   55  A    between atoms: O_48  and  C_82
REMARK   56  A    between atoms: O_48  and  C_83
REMARK   57  A    between atoms: C_49  and  C_51
REMARK   58  A    between atoms: C_51  and  C_53
REMARK   59  A    between atoms: C_53  and  C_54
REMARK   60  A    between atoms: C_54  and  C_55
REMARK   61  A    between atoms: C_55  and  C_56
REMARK   62  A    between atoms: C_56  and  C_57
REMARK   63  A    between atoms: C_57  and  C_58
REMARK   64  A    between atoms: C_58  and  C_59
REMARK   65  A    between atoms: C_61  and  C_62
REMARK   66  A    between atoms: C_64  and  C_65
REMARK   67  A    between atoms: C_66  and  C_67
REMARK   68  A    between atoms: C_68  and  C_69
REMARK   69  A    between atoms: C_70  and  C_71
REMARK   70  A    between atoms: C_72  and  C_73
REMARK   71  A    between atoms: C_75  and  C_76
REMARK   72  A    between atoms: C_77  and  C_78
REMARK   73  A    between atoms: C_79  and  C_80
REMARK   74  A    between atoms: C_81  and  C_82
REMARK   75  A    between atoms: C_83  and  C_84
REMARK                            x       y       z     vdW  Elec       q    Type
REMARK                         _______ _______ _______ _____ _____    ______ ____
ROOT
ATOM      1  C   UNL     1     -12.852   8.190  21.822  0.00  0.00    +0.000 C 
ENDROOT
BRANCH   1   2
ATOM      2  C   UNL     1     -11.321   7.802  21.823  0.00  0.00    +0.000 C 
BRANCH   2   4
ATOM      3  O   UNL     1     -10.897   6.513  23.922  0.00  0.00    +0.000 OA
ATOM      4  C   UNL     1     -11.127   6.439  22.420  0.00  0.00    +0.000 C 
ATOM      5  C   UNL     1      -9.787   5.899  21.917  0.00  0.00    +0.000 C 
ATOM      6  C   UNL     1      -8.997   5.805  23.224  0.00  0.00    +0.000 C 
ATOM      7  C   UNL     1      -9.972   5.651  24.356  0.00  0.00    +0.000 C 
BRANCH   6   8
ATOM      8  O   UNL     1      -8.199   6.987  23.265  0.00  0.00    +0.000 OA
BRANCH   8   9
ATOM      9  C   UNL     1      -7.175   6.971  24.242  0.00  0.00    +0.000 C 
BRANCH   9  10
ATOM     10  C   UNL     1      -5.923   7.529  23.641  0.00  0.00    +0.000 C 
BRANCH  10  11
ATOM     11  O   UNL     1      -4.950   6.516  23.546  0.00  0.00    +0.000 OA
BRANCH  11  12
ATOM     12  C   UNL     1      -5.371   5.309  24.145  0.00  0.00    +0.000 C 
BRANCH  12  13
ATOM     13  C   UNL     1      -4.146   4.562  24.630  0.00  0.00    +0.000 C 
BRANCH  13  14
ATOM     14  O   UNL     1      -3.571   3.845  23.589  0.00  0.00    +0.000 OA
BRANCH  14  15
ATOM     15  C   UNL     1      -2.211   3.990  23.480  0.00  0.00    +0.000 C 
BRANCH  15  16
ATOM     16  C   UNL     1      -1.642   4.406  24.799  0.00  0.00    +0.000 C 
BRANCH  16  17
ATOM     17  O   UNL     1      -0.338   3.888  24.980  0.00  0.00    +0.000 OA
BRANCH  17  18
ATOM     18  C   UNL     1       0.604   4.529  24.132  0.00  0.00    +0.000 C 
BRANCH  18  19
ATOM     19  C   UNL     1       0.629   6.014  24.404  0.00  0.00    +0.000 C 
BRANCH  19  20
ATOM     20  O   UNL     1       0.156   6.701  23.274  0.00  0.00    +0.000 OA
BRANCH  20  21
ATOM     21  C   UNL     1       0.527   8.069  23.353  0.00  0.00    +0.000 C 
BRANCH  21  23
ATOM     22  O   UNL     1       0.951   9.511  25.249  0.00  0.00    +0.000 OA
ATOM     23  C   UNL     1      -0.066   8.675  24.572  0.00  0.00    +0.000 C 
ENDBRANCH  21  23
ENDBRANCH  20  21
ENDBRANCH  19  20
ENDBRANCH  18  19
ENDBRANCH  17  18
ENDBRANCH  16  17
ENDBRANCH  15  16
ENDBRANCH  14  15
ENDBRANCH  13  14
ENDBRANCH  12  13
ENDBRANCH  11  12
ENDBRANCH  10  11
ENDBRANCH   9  10
ENDBRANCH   8   9
ENDBRANCH   6   8
BRANCH   5  24
ATOM     24  O   UNL     1      -9.980   4.600  21.427  0.00  0.00    +0.000 OA
BRANCH  24  25
ATOM     25  C   UNL     1     -11.221   4.440  20.825  0.00  0.00    +0.000 C 
BRANCH  25  26
ATOM     26  C   UNL     1     -11.189   3.197  19.905  0.00  0.00    +0.000 C 
BRANCH  26  27
ATOM     27  O   UNL     1     -10.491   3.547  18.716  0.00  0.00    +0.000 OA
BRANCH  27  28
ATOM     28  C   UNL     1     -10.865   2.735  17.667  0.00  0.00    +0.000 C 
BRANCH  28  29
ATOM     29  C   UNL     1     -11.880   1.713  18.183  0.00  0.00    +0.000 C 
BRANCH  29  30
ATOM     30  O   UNL     1     -11.518   0.470  17.693  0.00  0.00    +0.000 OA
BRANCH  30  31
ATOM     31  C   UNL     1     -11.917   0.272  16.351  0.00  0.00    +0.000 C 
BRANCH  31  32
ATOM     32  C   UNL     1     -13.321  -0.183  16.339  0.00  0.00    +0.000 C 
BRANCH  32  33
ATOM     33  O   UNL     1     -13.818  -0.029  15.025  0.00  0.00    +0.000 OA
BRANCH  33  34
ATOM     34  C   UNL     1     -13.038  -0.743  14.130  0.00  0.00    +0.000 C 
BRANCH  34  35
ATOM     35  C   UNL     1     -13.947  -1.347  13.061  0.00  0.00    +0.000 C 
BRANCH  35  36
ATOM     36  O   UNL     1     -13.558  -0.826  11.798  0.00  0.00    +0.000 OA
BRANCH  36  37
ATOM     37  C   UNL     1     -14.256   0.351  11.529  0.00  0.00    +0.000 C 
BRANCH  37  39
ATOM     38  O   UNL     1     -14.945  -1.137   9.827  0.00  0.00    +0.000 OA
ATOM     39  C   UNL     1     -15.143   0.169  10.326  0.00  0.00    +0.000 C 
ENDBRANCH  37  39
ENDBRANCH  36  37
ENDBRANCH  35  36
ENDBRANCH  34  35
ENDBRANCH  33  34
ENDBRANCH  32  33
ENDBRANCH  31  32
ENDBRANCH  30  31
ENDBRANCH  29  30
ENDBRANCH  28  29
ENDBRANCH  27  28
ENDBRANCH  26  27
ENDBRANCH  25  26
ENDBRANCH  24  25
ENDBRANCH   5  24
ENDBRANCH   2   4
ENDBRANCH   1   2
BRANCH   1  40
ATOM     40  O   UNL     1     -13.417   8.180  23.137  0.00  0.00    +0.000 OA
BRANCH  40  41
ATOM     41  C   UNL     1     -13.496   9.432  23.782  0.00  0.00    +0.000 C 
BRANCH  41  42
ATOM     42  C   UNL     1     -14.900   9.967  23.767  0.00  0.00    +0.000 C 
BRANCH  42  43
ATOM     43  O   UNL     1     -15.797   9.030  23.290  0.00  0.00    +0.000 OA
BRANCH  43  44
ATOM     44  C   UNL     1     -17.058   9.549  23.049  0.00  0.00    +0.000 C 
BRANCH  44  45
ATOM     45  C   UNL     1     -17.113  10.149  21.680  0.00  0.00    +0.000 C 
BRANCH  45  46
ATOM     46  O   UNL     1     -17.440   9.234  20.722  0.00  0.00    +0.000 OA
BRANCH  46  47
ATOM     47  C   UNL     1     -18.475   9.682  19.847  0.00  0.00    +0.000 C 
BRANCH  47  48
ATOM     48  C   UNL     1     -18.439   8.885  18.595  0.00  0.00    +0.000 C 
BRANCH  48  49
ATOM     49  O   UNL     1     -19.755   8.600  18.207  0.00  0.00    +0.000 OA
BRANCH  49  50
ATOM     50  C   UNL     1     -20.398   9.750  17.685  0.00  0.00    +0.000 C 
BRANCH  50  51
ATOM     51  C   UNL     1     -21.838   9.659  17.985  0.00  0.00    +0.000 C 
BRANCH  51  52
ATOM     52  O   UNL     1     -22.252   8.370  17.671  0.00  0.00    +0.000 OA
BRANCH  52  53
ATOM     53  C   UNL     1     -22.939   8.314  16.424  0.00  0.00    +0.000 C 
BRANCH  53  54
ATOM     54  C   UNL     1     -23.700   9.592  16.141  0.00  0.00    +0.000 C 
ATOM     55  O   UNL     1     -23.758   9.818  14.736  0.00  0.00    +0.000 OA
ENDBRANCH  53  54
ENDBRANCH  52  53
ENDBRANCH  51  52
ENDBRANCH  50  51
ENDBRANCH  49  50
ENDBRANCH  48  49
ENDBRANCH  47  48
ENDBRANCH  46  47
ENDBRANCH  45  46
ENDBRANCH  44  45
ENDBRANCH  43  44
ENDBRANCH  42  43
ENDBRANCH  41  42
ENDBRANCH  40  41
ENDBRANCH   1  40
BRANCH   1  56
ATOM     56  C   UNL     1     -13.642   7.222  21.015  0.00  0.00    +0.000 C 
BRANCH  56  57
ATOM     57  O   UNL     1     -14.372   8.004  20.146  0.00  0.00    +0.000 OA
BRANCH  57  58
ATOM     58  C   UNL     1     -15.140   7.192  19.235  0.00  0.00    +0.000 C 
BRANCH  58  59
ATOM     59  C   UNL     1     -14.539   5.796  19.159  0.00  0.00    +0.000 C 
BRANCH  59  60
ATOM     60  O   UNL     1     -15.484   4.876  18.682  0.00  0.00    +0.000 OA
BRANCH  60  61
ATOM     61  C   UNL     1     -15.041   4.148  17.549  0.00  0.00    +0.000 C 
BRANCH  61  62
ATOM     62  C   UNL     1     -13.788   4.740  16.911  0.00  0.00    +0.000 C 
BRANCH  62  63
ATOM     63  O   UNL     1     -13.927   4.722  15.506  0.00  0.00    +0.000 OA
BRANCH  63  64
ATOM     64  C   UNL     1     -13.649   3.448  14.977  0.00  0.00    +0.000 C 
BRANCH  64  65
ATOM     65  C   UNL     1     -12.196   3.405  14.528  0.00  0.00    +0.000 C 
BRANCH  65  66
ATOM     66  O   UNL     1     -12.118   2.586  13.366  0.00  0.00    +0.000 OA
BRANCH  66  67
ATOM     67  C   UNL     1     -10.857   2.583  12.796  0.00  0.00    +0.000 C 
BRANCH  67  68
ATOM     68  C   UNL     1      -9.954   3.495  13.594  0.00  0.00    +0.000 C 
BRANCH  68  69
ATOM     69  O   UNL     1      -9.366   4.391  12.687  0.00  0.00    +0.000 OA
BRANCH  69  70
ATOM     70  C   UNL     1      -8.994   3.789  11.505  0.00  0.00    +0.000 C 
BRANCH  70  71
ATOM     71  C   UNL     1      -9.095   4.793  10.372  0.00  0.00    +0.000 C 
BRANCH  71  72
ATOM     72  O   UNL     1      -9.164   4.027   9.202  0.00  0.00    +0.000 OA
BRANCH  72  74
ATOM     73  O   UNL     1      -9.451   5.739   7.829  0.00  0.00    +0.000 OA
ATOM     74  C   UNL     1      -9.804   4.666   8.191  0.00  0.00    +0.000 C 
BRANCH  74  75
ATOM     75  C   UNL     1     -10.934   3.939   7.592  0.00  0.00    +0.000 C 
BRANCH  75  76
ATOM     76  C   UNL     1     -11.664   4.882   6.618  0.00  0.00    +0.000 C 
BRANCH  76  77
ATOM     77  C   UNL     1     -13.146   4.562   6.617  0.00  0.00    +0.000 C 
BRANCH  77  78
ATOM     78  C   UNL     1     -13.335   3.056   6.714  0.00  0.00    +0.000 C 
BRANCH  78  79
ATOM     79  C   UNL     1     -14.224   2.768   7.899  0.00  0.00    +0.000 C 
BRANCH  79  80
ATOM     80  C   UNL     1     -15.641   2.535   7.363  0.00  0.00    +0.000 C 
BRANCH  80  81
ATOM     81  C   UNL     1     -16.628   3.187   8.301  0.00  0.00    +0.000 C 
BRANCH  81  82
ATOM     82  C   UNL     1     -15.876   4.096   9.268  0.00  0.00    +0.000 C 
BRANCH  82  83
ATOM     83  C   UNL     1     -16.389   5.526   9.187  0.00  0.00    +0.000 C 
BRANCH  83  84
ATOM     84  C   UNL     1     -16.184   6.127   7.828  0.00  0.00    +0.000 C 
ATOM     85  C   UNL     1     -17.431   6.791   7.326  0.00  0.00    +0.000 C 
ENDBRANCH  83  84
ENDBRANCH  82  83
ENDBRANCH  81  82
ENDBRANCH  80  81
ENDBRANCH  79  80
ENDBRANCH  78  79
ENDBRANCH  77  78
ENDBRANCH  76  77
ENDBRANCH  75  76
ENDBRANCH  74  75
ENDBRANCH  72  74
ENDBRANCH  71  72
ENDBRANCH  70  71
ENDBRANCH  69  70
ENDBRANCH  68  69
ENDBRANCH  67  68
ENDBRANCH  66  67
ENDBRANCH  65  66
ENDBRANCH  64  65
ENDBRANCH  63  64
ENDBRANCH  62  63
ENDBRANCH  61  62
ENDBRANCH  60  61
ENDBRANCH  59  60
ENDBRANCH  58  59
ENDBRANCH  57  58
ENDBRANCH  56  57
ENDBRANCH   1  56
TORSDOF 75
BEGIN_RES LEU A  10
REMARK  2 active torsions:
REMARK  status: ('A' for Active; 'I' for Inactive)
REMARK    1  A    between atoms: CA   and  CB  
REMARK    2  A    between atoms: CB   and  CG  
ROOT
ATOM      1  CA  LEU A  10     -10.775  -4.871   5.898  1.00 25.14     0.177 C 
ENDROOT
BRANCH   1   2
ATOM      2  CB  LEU A  10     -12.191  -4.387   6.226  1.00 17.87     0.038 C 
BRANCH   2   3
ATOM      3  CG  LEU A  10     -12.424  -2.895   5.976  1.00 24.95    -0.020 C 
ATOM      4  CD2 LEU A  10     -13.610  -2.450   6.762  1.00 26.38     0.009 C 
ATOM      5  CD1 LEU A  10     -12.626  -2.617   4.497  1.00 28.12     0.009 C 
ENDBRANCH   2   3
ENDBRANCH   1   2
END_RES LEU A  10
BEGIN_RES CYS A  12
REMARK  2 active torsions:
REMARK  status: ('A' for Active; 'I' for Inactive)
REMARK    3  A    between atoms: CA   and  CB  
REMARK    4  A    between atoms: CB   and  SG  
ROOT
ATOM      6  CA  CYS A  12      -8.555   0.470   8.750  1.00 23.16     0.185 C 
ENDROOT
BRANCH   6   7
ATOM      7  CB  CYS A  12      -9.828   0.763   9.555  1.00 20.43     0.105 C 
BRANCH   7   8
ATOM      8  SG  CYS A  12     -11.401   0.322   8.754  1.00 24.64    -0.180 SA
ATOM      9  H04 CYS A  12     -11.175  -0.002   7.474  1.00 24.64     0.101 HD
ENDBRANCH   7   8
ENDBRANCH   6   7
END_RES CYS A  12
BEGIN_RES GLN A  14
REMARK  3 active torsions:
REMARK  status: ('A' for Active; 'I' for Inactive)
REMARK    5  A    between atoms: CA   and  CB  
REMARK    6  A    between atoms: CB   and  CG  
REMARK    7  A    between atoms: CG   and  CD  
REMARK       I    between atoms: CD   and  NE2 
ROOT
ATOM     10  CA  GLN A  14      -4.645   5.402  11.377  1.00 10.43     0.177 C 
ENDROOT
BRANCH  10  11
ATOM     11  CB  GLN A  14      -5.541   5.549  12.608  1.00 14.45     0.044 C 
BRANCH  11  12
ATOM     12  CG  GLN A  14      -5.761   6.979  13.044  1.00 13.74     0.105 C 
BRANCH  12  13
ATOM     13  CD  GLN A  14      -6.567   7.770  12.041  1.00 16.29     0.215 C 
ATOM     14  NE2 GLN A  14      -6.547   9.079  12.175  1.00  8.57    -0.370 N 
ATOM     15  H06 GLN A  14      -7.067   9.660  11.532  1.00  8.57     0.159 HD
ATOM     16  H07 GLN A  14      -6.012   9.502  12.919  1.00  8.57     0.159 HD
ATOM     17  OE1 GLN A  14      -7.197   7.211  11.157  1.00 23.55    -0.274 OA
ENDBRANCH  12  13
ENDBRANCH  11  12
ENDBRANCH  10  11
END_RES GLN A  14
BEGIN_RES SER A  16
REMARK  2 active torsions:
REMARK  status: ('A' for Active; 'I' for Inactive)
REMARK    8  A    between atoms: CA   and  CB  
REMARK    9  A    between atoms: CB   and  OG  
ROOT
ATOM     18  CA  SER A  16      -1.305  10.019  14.282  1.00  2.34     0.200 C 
ENDROOT
BRANCH  18  19
ATOM     19  CB  SER A  16      -2.242   9.935  15.479  1.00  3.12     0.199 C 
BRANCH  19  20
ATOM     20  OG  SER A  16      -3.449   9.289  15.115  1.00  1.00    -0.398 OA
ATOM     21  H04 SER A  16      -3.476   9.174  14.162  1.00  1.00     0.209 HD
ENDBRANCH  19  20
ENDBRANCH  18  19
END_RES SER A  16
BEGIN_RES LEU A  32
REMARK  2 active torsions:
REMARK  status: ('A' for Active; 'I' for Inactive)
REMARK   10  A    between atoms: CA   and  CB  
REMARK   11  A    between atoms: CB   and  CG  
ROOT
ATOM     22  CA  LEU A  32     -10.272  -4.106   1.587  1.00 16.16     0.177 C 
ENDROOT
BRANCH  22  23
ATOM     23  CB  LEU A  32     -11.613  -3.858   0.880  1.00 12.35     0.038 C 
BRANCH  23  24
ATOM     24  CG  LEU A  32     -12.506  -5.116   0.885  1.00  9.77    -0.020 C 
ATOM     25  CD1 LEU A  32     -12.988  -5.412   2.285  1.00  4.35     0.009 C 
ATOM     26  CD2 LEU A  32     -13.688  -4.939  -0.032  1.00 10.60     0.009 C 
ENDBRANCH  23  24
ENDBRANCH  22  23
END_RES LEU A  32
BEGIN_RES HIS A  38
REMARK  2 active torsions:
REMARK  status: ('A' for Active; 'I' for Inactive)
REMARK   12  A    between atoms: CA   and  CB  
REMARK   13  A    between atoms: CB   and  CG  
ROOT
ATOM     27  CA  HIS A  38     -10.959   4.941   1.621  1.00 16.94     0.182 C 
ENDROOT
BRANCH  27  28
ATOM     28  CB  HIS A  38     -11.810   4.840   2.881  1.00 15.47     0.095 C 
BRANCH  28  29
ATOM     29  CG  HIS A  38     -12.998   3.944   2.737  1.00 18.62     0.053 A 
ATOM     30  CD2 HIS A  38     -14.182   4.134   2.108  1.00 15.06     0.116 A 
ATOM     31  NE2 HIS A  38     -14.906   2.978   2.257  1.00 18.12    -0.359 N 
ATOM     32  CE1 HIS A  38     -14.194   2.111   2.952  1.00 14.78     0.207 A 
ATOM     33  H06 HIS A  38     -15.834   2.817   1.893  1.00 18.12     0.166 HD
ATOM     34  ND1 HIS A  38     -13.039   2.669   3.255  1.00 16.58    -0.247 NA
ENDBRANCH  28  29
ENDBRANCH  27  28
END_RES HIS A  38
BEGIN_RES TRP A  63
REMARK  2 active torsions:
REMARK  status: ('A' for Active; 'I' for Inactive)
REMARK   14  A    between atoms: CA   and  CB  
REMARK   15  A    between atoms: CB   and  CG  
ROOT
ATOM     35  CA  TRP A  63     -22.437   6.257   6.543  1.00 27.04     0.181 C 
ENDROOT
BRANCH  35  36
ATOM     36  CB  TRP A  63     -22.360   6.642   5.068  1.00 31.37     0.075 C 
BRANCH  36  37
ATOM     37  CG  TRP A  63     -20.955   6.706   4.507  1.00 34.37    -0.028 A 
ATOM     38  CD2 TRP A  63     -19.912   5.734   4.667  1.00 33.79    -0.002 A 
ATOM     39  CE3 TRP A  63     -19.802   4.533   5.370  1.00 32.99     0.014 A 
ATOM     40  CE2 TRP A  63     -18.806   6.182   3.912  1.00 35.84     0.042 A 
ATOM     41  CZ3 TRP A  63     -18.610   3.826   5.300  1.00 32.93     0.001 A 
ATOM     42  CH2 TRP A  63     -17.527   4.298   4.541  1.00 39.24     0.002 A 
ATOM     43  CZ2 TRP A  63     -17.607   5.471   3.840  1.00 37.99     0.030 A 
ATOM     44  NE1 TRP A  63     -19.164   7.366   3.327  1.00 37.98    -0.365 N 
ATOM     45  H06 TRP A  63     -18.576   7.924   2.725  1.00 37.98     0.165 HD
ATOM     46  CD1 TRP A  63     -20.453   7.671   3.692  1.00 38.16     0.096 A 
ENDBRANCH  36  37
ENDBRANCH  35  36
END_RES TRP A  63
BEGIN_RES LEU A  66
REMARK  2 active torsions:
REMARK  status: ('A' for Active; 'I' for Inactive)
REMARK   16  A    between atoms: CA   and  CB  
REMARK   17  A    between atoms: CB   and  CG  
ROOT
ATOM     47  CA  LEU A  66     -20.004   6.489  11.120  1.00 10.90     0.177 C 
ENDROOT
BRANCH  47  48
ATOM     48  CB  LEU A  66     -19.626   5.453  10.069  1.00 13.57     0.038 C 
BRANCH  48  49
ATOM     49  CG  LEU A  66     -19.418   4.016  10.546  1.00  8.73    -0.020 C 
ATOM     50  CD1 LEU A  66     -19.332   3.963  12.049  1.00 14.23     0.009 C 
ATOM     51  CD2 LEU A  66     -20.576   3.181  10.065  1.00  1.92     0.009 C 
ENDBRANCH  48  49
ENDBRANCH  47  48
END_RES LEU A  66
BEGIN_RES PHE A  70
REMARK  2 active torsions:
REMARK  status: ('A' for Active; 'I' for Inactive)
REMARK   18  A    between atoms: CA   and  CB  
REMARK   19  A    between atoms: CB   and  CG  
ROOT
ATOM     52  CA  PHE A  70     -14.974   9.434  13.165  1.00  8.78     0.180 C 
ENDROOT
BRANCH  52  53
ATOM     53  CB  PHE A  70     -14.707   9.132  11.681  1.00  6.33     0.073 C 
BRANCH  53  54
ATOM     54  CG  PHE A  70     -13.951   7.850  11.458  1.00  3.42    -0.056 A 
ATOM     55  CD1 PHE A  70     -13.507   7.086  12.526  1.00 13.88     0.007 A 
ATOM     56  CE1 PHE A  70     -12.761   5.914  12.311  1.00 12.71     0.001 A 
ATOM     57  CZ  PHE A  70     -12.458   5.504  11.013  1.00  4.21     0.000 A 
ATOM     58  CE2 PHE A  70     -12.897   6.256   9.939  1.00  2.83     0.001 A 
ATOM     59  CD2 PHE A  70     -13.643   7.426  10.165  1.00  1.00     0.007 A 
ENDBRANCH  53  54
ENDBRANCH  52  53
END_RES PHE A  70
BEGIN_RES TYR A  73
REMARK  3 active torsions:
REMARK  status: ('A' for Active; 'I' for Inactive)
REMARK   20  A    between atoms: CA   and  CB  
REMARK   21  A    between atoms: CB   and  CG  
REMARK   22  A    between atoms: CZ   and  OH  
ROOT
ATOM     60  CA  TYR A  73     -13.212  10.166  17.260  1.00 12.17     0.180 C 
ENDROOT
BRANCH  60  61
ATOM     61  CB  TYR A  73     -13.301   8.846  16.517  1.00 12.84     0.073 C 
BRANCH  61  62
ATOM     62  CG  TYR A  73     -12.090   7.997  16.688  1.00 15.89    -0.056 A 
ATOM     63  CD1 TYR A  73     -11.413   7.496  15.599  1.00 16.00     0.010 A 
ATOM     64  CE1 TYR A  73     -10.296   6.676  15.757  1.00 13.55     0.037 A 
ATOM     65  CZ  TYR A  73      -9.864   6.360  17.029  1.00 18.13     0.065 A 
ATOM     66  CE2 TYR A  73     -10.522   6.848  18.134  1.00 15.89     0.037 A 
ATOM     67  CD2 TYR A  73     -11.632   7.665  17.958  1.00 21.86     0.010 A 
BRANCH  65  68
ATOM     68  OH  TYR A  73      -8.763   5.558  17.209  1.00 12.12    -0.361 OA
ATOM     69  H08 TYR A  73      -8.631   5.401  18.147  1.00 12.12     0.217 HD
ENDBRANCH  65  68
ENDBRANCH  61  62
ENDBRANCH  60  61
END_RES TYR A  73
BEGIN_RES PHE A  77
REMARK  2 active torsions:
REMARK  status: ('A' for Active; 'I' for Inactive)
REMARK   23  A    between atoms: CA   and  CB  
REMARK   24  A    between atoms: CB   and  CG  
ROOT
ATOM     70  CA  PHE A  77      -8.400  10.581  20.110  1.00 17.17     0.180 C 
ENDROOT
BRANCH  70  71
ATOM     71  CB  PHE A  77      -8.228   9.750  18.851  1.00 10.44     0.073 C 
BRANCH  71  72
ATOM     72  CG  PHE A  77      -7.255   8.622  19.001  1.00  6.07    -0.056 A 
ATOM     73  CD2 PHE A  77      -6.164   8.525  18.169  1.00  9.61     0.007 A 
ATOM     74  CE2 PHE A  77      -5.254   7.482  18.302  1.00  1.00     0.001 A 
ATOM     75  CZ  PHE A  77      -5.440   6.525  19.285  1.00  1.92     0.000 A 
ATOM     76  CE1 PHE A  77      -6.525   6.609  20.127  1.00  9.25     0.001 A 
ATOM     77  CD1 PHE A  77      -7.431   7.659  19.981  1.00  9.63     0.007 A 
ENDBRANCH  71  72
ENDBRANCH  70  71
END_RES PHE A  77
BEGIN_RES LEU A  96
REMARK  2 active torsions:
REMARK  status: ('A' for Active; 'I' for Inactive)
REMARK   25  A    between atoms: CA   and  CB  
REMARK   26  A    between atoms: CB   and  CG  
ROOT
ATOM     78  CA  LEU A  96       0.717   6.481  17.359  1.00 16.08     0.177 C 
ENDROOT
BRANCH  78  79
ATOM     79  CB  LEU A  96      -0.370   7.101  18.230  1.00 18.83     0.038 C 
BRANCH  79  80
ATOM     80  CG  LEU A  96      -0.939   6.166  19.297  1.00 19.03    -0.020 C 
ATOM     81  CD1 LEU A  96       0.206   5.553  20.069  1.00 28.17     0.009 C 
ATOM     82  CD2 LEU A  96      -1.810   6.936  20.262  1.00 22.01     0.009 C 
ENDBRANCH  79  80
ENDBRANCH  78  79
END_RES LEU A  96
BEGIN_RES VAL A  98
REMARK  1 active torsions:
REMARK  status: ('A' for Active; 'I' for Inactive)
REMARK   27  A    between atoms: CA   and  CB  
ROOT
ATOM     83  CA  VAL A  98      -3.928   2.082  14.897  1.00 19.83     0.180 C 
ENDROOT
BRANCH  83  84
ATOM     84  CB  VAL A  98      -5.203   2.807  15.281  1.00 17.87     0.009 C 
ATOM     85  CG2 VAL A  98      -5.164   3.184  16.739  1.00 29.90     0.012 C 
ATOM     86  CG1 VAL A  98      -6.397   1.923  14.986  1.00 14.79     0.012 C 
ENDBRANCH  83  84
END_RES VAL A  98
BEGIN_RES ASN A 112
REMARK  2 active torsions:
REMARK  status: ('A' for Active; 'I' for Inactive)
REMARK   28  A    between atoms: CA   and  CB  
REMARK   29  A    between atoms: CB   and  CG  
REMARK       I    between atoms: CG   and  ND2 
ROOT
ATOM     87  CA  ASN A 112     -11.790  -8.793  14.069  1.00 37.70     0.185 C 
ENDROOT
BRANCH  87  88
ATOM     88  CB  ASN A 112     -12.992  -7.945  14.465  1.00 26.24     0.137 C 
BRANCH  88  89
ATOM     89  CG  ASN A 112     -13.941  -8.662  15.399  1.00 21.77     0.217 C 
ATOM     90  ND2 ASN A 112     -13.634  -8.621  16.695  1.00  9.31    -0.370 N 
ATOM     91  H04 ASN A 112     -14.227  -9.082  17.370  1.00  9.31     0.159 HD
ATOM     92  H05 ASN A 112     -12.807  -8.128  17.003  1.00  9.31     0.159 HD
ATOM     93  OD1 ASN A 112     -14.937  -9.252  14.964  1.00 21.61    -0.274 OA
ENDBRANCH  88  89
ENDBRANCH  87  88
END_RES ASN A 112
BEGIN_RES PHE A 114
REMARK  2 active torsions:
REMARK  status: ('A' for Active; 'I' for Inactive)
REMARK   30  A    between atoms: CA   and  CB  
REMARK   31  A    between atoms: CB   and  CG  
ROOT
ATOM     94  CA  PHE A 114      -7.754  -3.619  17.012  1.00 26.06     0.180 C 
ENDROOT
BRANCH  94  95
ATOM     95  CB  PHE A 114      -8.890  -3.080  17.867  1.00 19.95     0.073 C 
BRANCH  95  96
ATOM     96  CG  PHE A 114      -8.687  -1.663  18.297  1.00 17.65    -0.056 A 
ATOM     97  CD1 PHE A 114      -8.114  -0.732  17.435  1.00 13.01     0.007 A 
ATOM     98  CE1 PHE A 114      -7.898   0.577  17.844  1.00  6.74     0.001 A 
ATOM     99  CZ  PHE A 114      -8.258   0.975  19.129  1.00  6.27     0.000 A 
ATOM    100  CE2 PHE A 114      -8.830   0.057  19.995  1.00 17.36     0.001 A 
ATOM    101  CD2 PHE A 114      -9.043  -1.260  19.577  1.00 18.39     0.007 A 
ENDBRANCH  95  96
ENDBRANCH  94  95
END_RES PHE A 114
BEGIN_RES VAL A 116
REMARK  1 active torsions:
REMARK  status: ('A' for Active; 'I' for Inactive)
REMARK   32  A    between atoms: CA   and  CB  
ROOT
ATOM    102  CA  VAL A 116      -2.467   0.283  18.565  1.00 13.48     0.180 C 
ENDROOT
BRANCH 102 103
ATOM    103  CB  VAL A 116      -3.101   1.238  19.599  1.00 20.86     0.009 C 
ATOM    104  CG1 VAL A 116      -2.702   2.680  19.276  1.00 25.01     0.012 C 
ATOM    105  CG2 VAL A 116      -4.602   1.071  19.636  1.00 25.34     0.012 C 
ENDBRANCH 102 103
END_RES VAL A 116
BEGIN_RES ILE A 123
REMARK  2 active torsions:
REMARK  status: ('A' for Active; 'I' for Inactive)
REMARK   33  A    between atoms: CA   and  CB  
REMARK   34  A    between atoms: CB   and  CG1 
ROOT
ATOM    106  CA  ILE A 123       1.557  -1.626  23.222  1.00 15.07     0.180 C 
ENDROOT
BRANCH 106 107
ATOM    107  CB  ILE A 123       1.697  -0.112  23.461  1.00 14.41     0.013 C 
ATOM    108  CG2 ILE A 123       3.079   0.200  24.007  1.00 18.35     0.012 C 
BRANCH 107 109
ATOM    109  CG1 ILE A 123       1.457   0.654  22.162  1.00 15.23     0.002 C 
ATOM    110  CD1 ILE A 123       0.190   1.474  22.168  1.00 14.67     0.005 C 
ENDBRANCH 107 109
ENDBRANCH 106 107
END_RES ILE A 123
BEGIN_RES LEU A 124
REMARK  2 active torsions:
REMARK  status: ('A' for Active; 'I' for Inactive)
REMARK   35  A    between atoms: CA   and  CB  
REMARK   36  A    between atoms: CB   and  CG  
ROOT
ATOM    111  CA  LEU A 124      -2.057  -2.686  23.524  1.00 11.86     0.177 C 
ENDROOT
BRANCH 111 112
ATOM    112  CB  LEU A 124      -2.698  -1.652  24.429  1.00 14.60     0.038 C 
BRANCH 112 113
ATOM    113  CG  LEU A 124      -2.556  -0.242  23.876  1.00 16.19    -0.020 C 
ATOM    114  CD1 LEU A 124      -3.912   0.210  23.300  1.00 22.07     0.009 C 
ATOM    115  CD2 LEU A 124      -2.074   0.680  24.967  1.00  9.12     0.009 C 
ENDBRANCH 112 113
ENDBRANCH 111 112
END_RES LEU A 124
BEGIN_RES PHE A 126
REMARK  2 active torsions:
REMARK  status: ('A' for Active; 'I' for Inactive)
REMARK   37  A    between atoms: CA   and  CB  
REMARK   38  A    between atoms: CB   and  CG  
ROOT
ATOM    116  CA  PHE A 126      -8.784  -4.792  22.233  1.00 23.15     0.180 C 
ENDROOT
BRANCH 116 117
ATOM    117  CB  PHE A 126      -9.823  -4.011  21.461  1.00 20.65     0.073 C 
BRANCH 117 118
ATOM    118  CG  PHE A 126     -10.937  -3.522  22.301  1.00 23.65    -0.056 A 
ATOM    119  CD2 PHE A 126     -12.209  -4.051  22.164  1.00 36.63     0.007 A 
ATOM    120  CE2 PHE A 126     -13.264  -3.587  22.962  1.00 36.27     0.001 A 
ATOM    121  CZ  PHE A 126     -13.037  -2.590  23.898  1.00 18.06     0.000 A 
ATOM    122  CE1 PHE A 126     -11.769  -2.062  24.039  1.00  5.50     0.001 A 
ATOM    123  CD1 PHE A 126     -10.724  -2.531  23.243  1.00 15.29     0.007 A 
ENDBRANCH 117 118
ENDBRANCH 116 117
END_RES PHE A 126
BEGIN_RES TRP A 131
REMARK  2 active torsions:
REMARK  status: ('A' for Active; 'I' for Inactive)
REMARK   39  A    between atoms: CA   and  CB  
REMARK   40  A    between atoms: CB   and  CG  
ROOT
ATOM    124  CA  TRP A 131      -8.096  -3.335  26.542  1.00 14.52     0.181 C 
ENDROOT
BRANCH 124 125
ATOM    125  CB  TRP A 131      -7.651  -1.877  26.607  1.00 13.06     0.075 C 
BRANCH 125 126
ATOM    126  CG  TRP A 131      -7.975  -1.073  25.368  1.00 16.97    -0.028 A 
ATOM    127  CD2 TRP A 131      -9.031  -0.118  25.223  1.00 11.34    -0.002 A 
ATOM    128  CE2 TRP A 131      -8.962   0.393  23.913  1.00  5.87     0.042 A 
ATOM    129  CE3 TRP A 131     -10.030   0.353  26.082  1.00  3.80     0.014 A 
ATOM    130  CZ2 TRP A 131      -9.855   1.356  23.439  1.00  1.35     0.030 A 
ATOM    131  NE1 TRP A 131      -7.914  -0.223  23.285  1.00 13.90    -0.365 N 
ATOM    132  CH2 TRP A 131     -10.825   1.802  24.302  1.00  1.00     0.002 A 
ATOM    133  CZ3 TRP A 131     -10.919   1.306  25.617  1.00  1.00     0.001 A 
ATOM    134  CD1 TRP A 131      -7.325  -1.101  24.164  1.00 17.22     0.096 A 
ATOM    135  H07 TRP A 131      -7.621  -0.059  22.333  1.00 13.90     0.165 HD
ENDBRANCH 125 126
ENDBRANCH 124 125
END_RES TRP A 131
BEGIN_RES LEU A 148
REMARK  2 active torsions:
REMARK  status: ('A' for Active; 'I' for Inactive)
REMARK   41  A    between atoms: CA   and  CB  
REMARK   42  A    between atoms: CB   and  CG  
ROOT
ATOM    136  CA  LEU A 148      -9.018   3.259  29.295  1.00 16.99     0.177 C 
ENDROOT
BRANCH 136 137
ATOM    137  CB  LEU A 148      -8.166   2.574  28.236  1.00  6.39     0.038 C 
BRANCH 137 138
ATOM    138  CG  LEU A 148      -7.278   3.376  27.307  1.00  1.00    -0.020 C 
ATOM    139  CD2 LEU A 148      -7.865   3.411  25.926  1.00  1.00     0.009 C 
ATOM    140  CD1 LEU A 148      -5.904   2.731  27.287  1.00  2.71     0.009 C 
ENDBRANCH 137 138
ENDBRANCH 136 137
END_RES LEU A 148
BEGIN_RES THR A 154
REMARK  2 active torsions:
REMARK  status: ('A' for Active; 'I' for Inactive)
REMARK   43  A    between atoms: CA   and  CB  
REMARK   44  A    between atoms: CB   and  OG1 
ROOT
ATOM    141  CA  THR A 154     -15.990   3.959  24.426  1.00 20.45     0.205 C 
ENDROOT
BRANCH 141 142
ATOM    142  CB  THR A 154     -14.777   4.829  24.694  1.00 16.79     0.146 C 
ATOM    143  CG2 THR A 154     -13.602   4.362  23.857  1.00 20.24     0.042 C 
BRANCH 142 144
ATOM    144  OG1 THR A 154     -15.089   6.182  24.340  1.00 18.84    -0.393 OA
ATOM    145  H06 THR A 154     -14.320   6.738  24.489  1.00 18.84     0.210 HD
ENDBRANCH 142 144
ENDBRANCH 141 142
END_RES THR A 154
BEGIN_RES VAL A 158
REMARK  1 active torsions:
REMARK  status: ('A' for Active; 'I' for Inactive)
REMARK   45  A    between atoms: CA   and  CB  
ROOT
ATOM    146  CA  VAL A 158     -15.487  -0.189  19.892  1.00 15.49     0.180 C 
ENDROOT
BRANCH 146 147
ATOM    147  CB  VAL A 158     -14.291  -0.273  20.822  1.00  6.52     0.009 C 
ATOM    148  CG1 VAL A 158     -13.204  -1.138  20.226  1.00  1.00     0.012 C 
ATOM    149  CG2 VAL A 158     -13.784   1.112  21.078  1.00  5.99     0.012 C 
ENDBRANCH 146 147
END_RES VAL A 158
BEGIN_RES LEU A 161
REMARK  2 active torsions:
REMARK  status: ('A' for Active; 'I' for Inactive)
REMARK   46  A    between atoms: CA   and  CB  
REMARK   47  A    between atoms: CB   and  CG  
ROOT
ATOM    150  CA  LEU A 161     -18.031  -1.858  15.935  1.00 13.31     0.177 C 
ENDROOT
BRANCH 150 151
ATOM    151  CB  LEU A 161     -17.046  -0.706  16.001  1.00 14.13     0.038 C 
BRANCH 151 152
ATOM    152  CG  LEU A 161     -17.431   0.556  15.238  1.00 19.39    -0.020 C 
ATOM    153  CD2 LEU A 161     -18.858   0.938  15.548  1.00 27.75     0.009 C 
ATOM    154  CD1 LEU A 161     -17.274   0.300  13.764  1.00 18.59     0.009 C 
ENDBRANCH 151 152
ENDBRANCH 150 151
END_RES LEU A 161
BEGIN_RES GLN A 168
REMARK  3 active torsions:
REMARK  status: ('A' for Active; 'I' for Inactive)
REMARK   48  A    between atoms: CA   and  CB  
REMARK   49  A    between atoms: CB   and  CG  
REMARK   50  A    between atoms: CG   and  CD  
REMARK       I    between atoms: CD   and  NE2 
ROOT
ATOM    155  CA  GLN A 168     -22.035  -6.020   8.155  1.00 30.94     0.177 C 
ENDROOT
BRANCH 155 156
ATOM    156  CB  GLN A 168     -23.054  -5.218   8.946  1.00 41.76     0.044 C 
BRANCH 156 157
ATOM    157  CG  GLN A 168     -24.457  -5.757   8.883  1.00 61.20     0.105 C 
BRANCH 157 158
ATOM    158  CD  GLN A 168     -25.086  -5.541   7.520  1.00 75.49     0.215 C 
ATOM    159  NE2 GLN A 168     -25.154  -4.278   7.096  1.00 85.00    -0.370 N 
ATOM    160  H06 GLN A 168     -25.565  -4.068   6.197  1.00 85.00     0.159 HD
ATOM    161  H07 GLN A 168     -24.796  -3.531   7.675  1.00 85.00     0.159 HD
ATOM    162  OE1 GLN A 168     -25.512  -6.495   6.854  1.00 73.64    -0.274 OA
ENDBRANCH 157 158
ENDBRANCH 156 157
ENDBRANCH 155 156
END_RES GLN A 168
ENDMDL
MODEL 4
REMARK VINA RESULT:      -6.8      2.224     10.169
REMARK  Name = human_CD1d_Tween20_pred.rank_0
REMARK  75 active torsions:
REMARK  status: ('A' for Active; 'I' for Inactive)
REMARK    1  A    between atoms: C_1  and  C_3
REMARK    2  A    between atoms: C_3  and  O_4
REMARK    3  A    between atoms: O_4  and  C_5
REMARK    4  A    between atoms: C_5  and  C_7
REMARK    5  A    between atoms: O_6  and  C_7
REMARK    6  A    between atoms: O_6  and  C_9
REMARK    7  A    between atoms: O_8  and  C_11
REMARK    8  A    between atoms: O_8  and  C_13
REMARK    9  A    between atoms: C_9  and  C_11
REMARK   10  A    between atoms: O_10  and  C_15
REMARK   11  A    between atoms: O_10  and  C_17
REMARK   12  A    between atoms: O_12  and  C_19
REMARK   13  A    between atoms: O_12  and  C_21
REMARK   14  A    between atoms: C_13  and  C_15
REMARK   15  A    between atoms: O_14  and  C_23
REMARK   16  A    between atoms: O_14  and  C_25
REMARK   17  A    between atoms: O_16  and  C_27
REMARK   18  A    between atoms: O_16  and  C_29
REMARK   19  A    between atoms: C_17  and  C_19
REMARK   20  A    between atoms: O_18  and  C_31
REMARK   21  A    between atoms: O_18  and  C_33
REMARK   22  A    between atoms: O_20  and  C_35
REMARK   23  A    between atoms: O_20  and  C_37
REMARK   24  A    between atoms: C_21  and  C_23
REMARK   25  A    between atoms: C_21  and  C_61
REMARK   26  A    between atoms: O_22  and  C_39
REMARK   27  A    between atoms: O_22  and  C_41
REMARK   28  A    between atoms: O_24  and  C_43
REMARK   29  A    between atoms: O_24  and  C_45
REMARK   30  A    between atoms: C_25  and  C_27
REMARK   31  A    between atoms: O_28  and  C_63
REMARK   32  A    between atoms: O_28  and  C_64
REMARK   33  A    between atoms: C_29  and  C_31
REMARK   34  A    between atoms: O_30  and  C_65
REMARK   35  A    between atoms: O_30  and  C_66
REMARK   36  A    between atoms: O_32  and  C_67
REMARK   37  A    between atoms: O_32  and  C_68
REMARK   38  A    between atoms: C_33  and  C_35
REMARK   39  A    between atoms: O_34  and  C_69
REMARK   40  A    between atoms: O_34  and  C_70
REMARK   41  A    between atoms: O_36  and  C_71
REMARK   42  A    between atoms: O_36  and  C_72
REMARK   43  A    between atoms: C_37  and  C_39
REMARK   44  A    between atoms: O_40  and  C_74
REMARK   45  A    between atoms: O_40  and  C_75
REMARK   46  A    between atoms: C_41  and  C_43
REMARK   47  A    between atoms: O_42  and  C_76
REMARK   48  A    between atoms: O_42  and  C_77
REMARK   49  A    between atoms: O_44  and  C_78
REMARK   50  A    between atoms: O_44  and  C_79
REMARK   51  A    between atoms: C_45  and  C_47
REMARK   52  A    between atoms: O_46  and  C_80
REMARK   53  A    between atoms: O_46  and  C_81
REMARK   54  A    between atoms: C_47  and  C_49
REMARK   55  A    between atoms: O_48  and  C_82
REMARK   56  A    between atoms: O_48  and  C_83
REMARK   57  A    between atoms: C_49  and  C_51
REMARK   58  A    between atoms: C_51  and  C_53
REMARK   59  A    between atoms: C_53  and  C_54
REMARK   60  A    between atoms: C_54  and  C_55
REMARK   61  A    between atoms: C_55  and  C_56
REMARK   62  A    between atoms: C_56  and  C_57
REMARK   63  A    between atoms: C_57  and  C_58
REMARK   64  A    between atoms: C_58  and  C_59
REMARK   65  A    between atoms: C_61  and  C_62
REMARK   66  A    between atoms: C_64  and  C_65
REMARK   67  A    between atoms: C_66  and  C_67
REMARK   68  A    between atoms: C_68  and  C_69
REMARK   69  A    between atoms: C_70  and  C_71
REMARK   70  A    between atoms: C_72  and  C_73
REMARK   71  A    between atoms: C_75  and  C_76
REMARK   72  A    between atoms: C_77  and  C_78
REMARK   73  A    between atoms: C_79  and  C_80
REMARK   74  A    between atoms: C_81  and  C_82
REMARK   75  A    between atoms: C_83  and  C_84
REMARK                            x       y       z     vdW  Elec       q    Type
REMARK                         _______ _______ _______ _____ _____    ______ ____
ROOT
ATOM      1  C   UNL     1     -13.064   8.391  21.702  0.00  0.00    +0.000 C 
ENDROOT
BRANCH   1   2
ATOM      2  C   UNL     1     -11.556   7.941  21.845  0.00  0.00    +0.000 C 
BRANCH   2   4
ATOM      3  O   UNL     1     -11.068   6.828  24.029  0.00  0.00    +0.000 OA
ATOM      4  C   UNL     1     -11.468   6.632  22.575  0.00  0.00    +0.000 C 
ATOM      5  C   UNL     1     -10.268   5.868  22.011  0.00  0.00    +0.000 C 
ATOM      6  C   UNL     1      -9.359   5.802  23.239  0.00  0.00    +0.000 C 
ATOM      7  C   UNL     1     -10.215   5.898  24.470  0.00  0.00    +0.000 C 
BRANCH   6   8
ATOM      8  O   UNL     1      -8.420   6.864  23.068  0.00  0.00    +0.000 OA
BRANCH   8   9
ATOM      9  C   UNL     1      -7.422   6.933  24.069  0.00  0.00    +0.000 C 
BRANCH   9  10
ATOM     10  C   UNL     1      -6.133   7.359  23.439  0.00  0.00    +0.000 C 
BRANCH  10  11
ATOM     11  O   UNL     1      -5.072   6.603  23.971  0.00  0.00    +0.000 OA
BRANCH  11  12
ATOM     12  C   UNL     1      -4.370   5.888  22.978  0.00  0.00    +0.000 C 
BRANCH  12  13
ATOM     13  C   UNL     1      -4.375   4.420  23.349  0.00  0.00    +0.000 C 
BRANCH  13  14
ATOM     14  O   UNL     1      -3.166   4.062  23.929  0.00  0.00    +0.000 OA
BRANCH  14  15
ATOM     15  C   UNL     1      -3.159   4.099  25.301  0.00  0.00    +0.000 C 
BRANCH  15  16
ATOM     16  C   UNL     1      -1.902   4.754  25.779  0.00  0.00    +0.000 C 
BRANCH  16  17
ATOM     17  O   UNL     1      -0.763   4.195  25.151  0.00  0.00    +0.000 OA
BRANCH  17  18
ATOM     18  C   UNL     1       0.223   5.179  24.880  0.00  0.00    +0.000 C 
BRANCH  18  19
ATOM     19  C   UNL     1       0.029   5.750  23.496  0.00  0.00    +0.000 C 
BRANCH  19  20
ATOM     20  O   UNL     1       0.005   7.152  23.571  0.00  0.00    +0.000 OA
BRANCH  20  21
ATOM     21  C   UNL     1       0.764   7.587  24.689  0.00  0.00    +0.000 C 
BRANCH  21  23
ATOM     22  O   UNL     1       2.064   9.624  24.571  0.00  0.00    +0.000 OA
ATOM     23  C   UNL     1       0.709   9.068  24.782  0.00  0.00    +0.000 C 
ENDBRANCH  21  23
ENDBRANCH  20  21
ENDBRANCH  19  20
ENDBRANCH  18  19
ENDBRANCH  17  18
ENDBRANCH  16  17
ENDBRANCH  15  16
ENDBRANCH  14  15
ENDBRANCH  13  14
ENDBRANCH  12  13
ENDBRANCH  11  12
ENDBRANCH  10  11
ENDBRANCH   9  10
ENDBRANCH   8   9
ENDBRANCH   6   8
BRANCH   5  24
ATOM     24  O   UNL     1     -10.673   4.564  21.695  0.00  0.00    +0.000 OA
BRANCH  24  25
ATOM     25  C   UNL     1     -11.506   4.522  20.585  0.00  0.00    +0.000 C 
BRANCH  25  26
ATOM     26  C   UNL     1     -11.041   3.393  19.636  0.00  0.00    +0.000 C 
BRANCH  26  27
ATOM     27  O   UNL     1     -12.094   3.131  18.716  0.00  0.00    +0.000 OA
BRANCH  27  28
ATOM     28  C   UNL     1     -11.882   1.943  18.049  0.00  0.00    +0.000 C 
BRANCH  28  29
ATOM     29  C   UNL     1     -13.205   1.494  17.427  0.00  0.00    +0.000 C 
BRANCH  29  30
ATOM     30  O   UNL     1     -13.127   0.131  17.197  0.00  0.00    +0.000 OA
BRANCH  30  31
ATOM     31  C   UNL     1     -12.433  -0.185  16.007  0.00  0.00    +0.000 C 
BRANCH  31  32
ATOM     32  C   UNL     1     -13.415  -0.581  14.979  0.00  0.00    +0.000 C 
BRANCH  32  33
ATOM     33  O   UNL     1     -12.784  -0.497  13.718  0.00  0.00    +0.000 OA
BRANCH  33  34
ATOM     34  C   UNL     1     -13.065  -1.625  12.964  0.00  0.00    +0.000 C 
BRANCH  34  35
ATOM     35  C   UNL     1     -14.337  -1.371  12.157  0.00  0.00    +0.000 C 
BRANCH  35  36
ATOM     36  O   UNL     1     -13.982  -1.272  10.785  0.00  0.00    +0.000 OA
BRANCH  36  37
ATOM     37  C   UNL     1     -14.672  -0.221  10.184  0.00  0.00    +0.000 C 
BRANCH  37  39
ATOM     38  O   UNL     1     -14.243   2.100  10.319  0.00  0.00    +0.000 OA
ATOM     39  C   UNL     1     -14.667   0.989  11.081  0.00  0.00    +0.000 C 
ENDBRANCH  37  39
ENDBRANCH  36  37
ENDBRANCH  35  36
ENDBRANCH  34  35
ENDBRANCH  33  34
ENDBRANCH  32  33
ENDBRANCH  31  32
ENDBRANCH  30  31
ENDBRANCH  29  30
ENDBRANCH  28  29
ENDBRANCH  27  28
ENDBRANCH  26  27
ENDBRANCH  25  26
ENDBRANCH  24  25
ENDBRANCH   5  24
ENDBRANCH   2   4
ENDBRANCH   1   2
BRANCH   1  40
ATOM     40  O   UNL     1     -13.785   8.276  22.932  0.00  0.00    +0.000 OA
BRANCH  40  41
ATOM     41  C   UNL     1     -14.226   9.489  23.502  0.00  0.00    +0.000 C 
BRANCH  41  42
ATOM     42  C   UNL     1     -13.137  10.146  24.302  0.00  0.00    +0.000 C 
BRANCH  42  43
ATOM     43  O   UNL     1     -13.230   9.830  25.644  0.00  0.00    +0.000 OA
BRANCH  43  44
ATOM     44  C   UNL     1     -12.807  10.850  26.480  0.00  0.00    +0.000 C 
BRANCH  44  45
ATOM     45  C   UNL     1     -13.698  10.935  27.678  0.00  0.00    +0.000 C 
BRANCH  45  46
ATOM     46  O   UNL     1     -14.455   9.813  27.846  0.00  0.00    +0.000 OA
BRANCH  46  47
ATOM     47  C   UNL     1     -14.564   9.407  29.210  0.00  0.00    +0.000 C 
BRANCH  47  48
ATOM     48  C   UNL     1     -13.235   9.514  29.863  0.00  0.00    +0.000 C 
BRANCH  48  49
ATOM     49  O   UNL     1     -12.614   8.259  29.820  0.00  0.00    +0.000 OA
BRANCH  49  50
ATOM     50  C   UNL     1     -11.463   8.283  28.992  0.00  0.00    +0.000 C 
BRANCH  50  51
ATOM     51  C   UNL     1     -10.449   9.145  29.623  0.00  0.00    +0.000 C 
BRANCH  51  52
ATOM     52  O   UNL     1      -9.276   8.407  29.729  0.00  0.00    +0.000 OA
BRANCH  52  53
ATOM     53  C   UNL     1      -8.115   9.229  29.658  0.00  0.00    +0.000 C 
BRANCH  53  54
ATOM     54  C   UNL     1      -7.703   9.502  28.227  0.00  0.00    +0.000 C 
ATOM     55  O   UNL     1      -7.872   8.325  27.443  0.00  0.00    +0.000 OA
ENDBRANCH  53  54
ENDBRANCH  52  53
ENDBRANCH  51  52
ENDBRANCH  50  51
ENDBRANCH  49  50
ENDBRANCH  48  49
ENDBRANCH  47  48
ENDBRANCH  46  47
ENDBRANCH  45  46
ENDBRANCH  44  45
ENDBRANCH  43  44
ENDBRANCH  42  43
ENDBRANCH  41  42
ENDBRANCH  40  41
ENDBRANCH   1  40
BRANCH   1  56
ATOM     56  C   UNL     1     -13.778   7.541  20.712  0.00  0.00    +0.000 C 
BRANCH  56  57
ATOM     57  O   UNL     1     -14.602   8.411  20.032  0.00  0.00    +0.000 OA
BRANCH  57  58
ATOM     58  C   UNL     1     -15.584   7.698  19.253  0.00  0.00    +0.000 C 
BRANCH  58  59
ATOM     59  C   UNL     1     -15.066   6.304  18.926  0.00  0.00    +0.000 C 
BRANCH  59  60
ATOM     60  O   UNL     1     -14.875   6.158  17.545  0.00  0.00    +0.000 OA
BRANCH  60  61
ATOM     61  C   UNL     1     -14.465   4.855  17.166  0.00  0.00    +0.000 C 
BRANCH  61  62
ATOM     62  C   UNL     1     -13.785   4.817  15.801  0.00  0.00    +0.000 C 
BRANCH  62  63
ATOM     63  O   UNL     1     -14.686   4.299  14.845  0.00  0.00    +0.000 OA
BRANCH  63  64
ATOM     64  C   UNL     1     -14.190   3.121  14.255  0.00  0.00    +0.000 C 
BRANCH  64  65
ATOM     65  C   UNL     1     -12.669   3.145  14.306  0.00  0.00    +0.000 C 
BRANCH  65  66
ATOM     66  O   UNL     1     -12.179   2.541  13.114  0.00  0.00    +0.000 OA
BRANCH  66  67
ATOM     67  C   UNL     1     -10.797   2.519  13.052  0.00  0.00    +0.000 C 
BRANCH  67  68
ATOM     68  C   UNL     1     -10.250   3.653  13.889  0.00  0.00    +0.000 C 
BRANCH  68  69
ATOM     69  O   UNL     1      -9.528   4.492  13.026  0.00  0.00    +0.000 OA
BRANCH  69  70
ATOM     70  C   UNL     1      -8.868   3.799  12.034  0.00  0.00    +0.000 C 
BRANCH  70  71
ATOM     71  C   UNL     1      -8.845   4.631  10.765  0.00  0.00    +0.000 C 
BRANCH  71  72
ATOM     72  O   UNL     1      -9.646   3.935   9.851  0.00  0.00    +0.000 OA
BRANCH  72  74
ATOM     73  O   UNL     1      -9.086   5.522   8.414  0.00  0.00    +0.000 OA
ATOM     74  C   UNL     1      -9.728   4.552   8.646  0.00  0.00    +0.000 C 
BRANCH  74  75
ATOM     75  C   UNL     1     -10.647   3.935   7.677  0.00  0.00    +0.000 C 
BRANCH  75  76
ATOM     76  C   UNL     1     -11.144   5.025   6.709  0.00  0.00    +0.000 C 
BRANCH  76  77
ATOM     77  C   UNL     1     -12.635   4.862   6.484  0.00  0.00    +0.000 C 
BRANCH  77  78
ATOM     78  C   UNL     1     -13.084   3.521   7.042  0.00  0.00    +0.000 C 
BRANCH  78  79
ATOM     79  C   UNL     1     -14.552   3.352   6.741  0.00  0.00    +0.000 C 
BRANCH  79  80
ATOM     80  C   UNL     1     -15.250   4.666   7.110  0.00  0.00    +0.000 C 
BRANCH  80  81
ATOM     81  C   UNL     1     -16.540   4.347   7.825  0.00  0.00    +0.000 C 
BRANCH  81  82
ATOM     82  C   UNL     1     -16.718   2.833   7.888  0.00  0.00    +0.000 C 
BRANCH  82  83
ATOM     83  C   UNL     1     -18.109   2.424   7.425  0.00  0.00    +0.000 C 
BRANCH  83  84
ATOM     84  C   UNL     1     -18.842   1.628   8.463  0.00  0.00    +0.000 C 
ATOM     85  C   UNL     1     -17.903   0.792   9.279  0.00  0.00    +0.000 C 
ENDBRANCH  83  84
ENDBRANCH  82  83
ENDBRANCH  81  82
ENDBRANCH  80  81
ENDBRANCH  79  80
ENDBRANCH  78  79
ENDBRANCH  77  78
ENDBRANCH  76  77
ENDBRANCH  75  76
ENDBRANCH  74  75
ENDBRANCH  72  74
ENDBRANCH  71  72
ENDBRANCH  70  71
ENDBRANCH  69  70
ENDBRANCH  68  69
ENDBRANCH  67  68
ENDBRANCH  66  67
ENDBRANCH  65  66
ENDBRANCH  64  65
ENDBRANCH  63  64
ENDBRANCH  62  63
ENDBRANCH  61  62
ENDBRANCH  60  61
ENDBRANCH  59  60
ENDBRANCH  58  59
ENDBRANCH  57  58
ENDBRANCH  56  57
ENDBRANCH   1  56
TORSDOF 75
BEGIN_RES LEU A  10
REMARK  2 active torsions:
REMARK  status: ('A' for Active; 'I' for Inactive)
REMARK    1  A    between atoms: CA   and  CB  
REMARK    2  A    between atoms: CB   and  CG  
ROOT
ATOM      1  CA  LEU A  10     -10.775  -4.871   5.898  1.00 25.14     0.177 C 
ENDROOT
BRANCH   1   2
ATOM      2  CB  LEU A  10     -12.191  -4.387   6.226  1.00 17.87     0.038 C 
BRANCH   2   3
ATOM      3  CG  LEU A  10     -12.362  -2.867   6.201  1.00 24.95    -0.020 C 
ATOM      4  CD2 LEU A  10     -13.566  -2.499   7.001  1.00 26.38     0.009 C 
ATOM      5  CD1 LEU A  10     -12.490  -2.357   4.776  1.00 28.12     0.009 C 
ENDBRANCH   2   3
ENDBRANCH   1   2
END_RES LEU A  10
BEGIN_RES CYS A  12
REMARK  2 active torsions:
REMARK  status: ('A' for Active; 'I' for Inactive)
REMARK    3  A    between atoms: CA   and  CB  
REMARK    4  A    between atoms: CB   and  SG  
ROOT
ATOM      6  CA  CYS A  12      -8.555   0.470   8.750  1.00 23.16     0.185 C 
ENDROOT
BRANCH   6   7
ATOM      7  CB  CYS A  12      -9.828   0.763   9.555  1.00 20.43     0.105 C 
BRANCH   7   8
ATOM      8  SG  CYS A  12     -11.404   0.441   8.705  1.00 24.64    -0.180 SA
ATOM      9  H04 CYS A  12     -11.761   1.523   8.000  1.00 24.64     0.101 HD
ENDBRANCH   7   8
ENDBRANCH   6   7
END_RES CYS A  12
BEGIN_RES GLN A  14
REMARK  3 active torsions:
REMARK  status: ('A' for Active; 'I' for Inactive)
REMARK    5  A    between atoms: CA   and  CB  
REMARK    6  A    between atoms: CB   and  CG  
REMARK    7  A    between atoms: CG   and  CD  
REMARK       I    between atoms: CD   and  NE2 
ROOT
ATOM     10  CA  GLN A  14      -4.645   5.402  11.377  1.00 10.43     0.177 C 
ENDROOT
BRANCH  10  11
ATOM     11  CB  GLN A  14      -5.541   5.549  12.608  1.00 14.45     0.044 C 
BRANCH  11  12
ATOM     12  CG  GLN A  14      -6.507   6.709  12.533  1.00 13.74     0.105 C 
BRANCH  12  13
ATOM     13  CD  GLN A  14      -6.264   7.733  13.616  1.00 16.29     0.215 C 
ATOM     14  NE2 GLN A  14      -6.608   7.388  14.837  1.00  8.57    -0.370 N 
ATOM     15  H06 GLN A  14      -6.468   8.032  15.602  1.00  8.57     0.159 HD
ATOM     16  H07 GLN A  14      -7.012   6.478  15.010  1.00  8.57     0.159 HD
ATOM     17  OE1 GLN A  14      -5.771   8.819  13.356  1.00 23.55    -0.274 OA
ENDBRANCH  12  13
ENDBRANCH  11  12
ENDBRANCH  10  11
END_RES GLN A  14
BEGIN_RES SER A  16
REMARK  2 active torsions:
REMARK  status: ('A' for Active; 'I' for Inactive)
REMARK    8  A    between atoms: CA   and  CB  
REMARK    9  A    between atoms: CB   and  OG  
ROOT
ATOM     18  CA  SER A  16      -1.305  10.019  14.282  1.00  2.34     0.200 C 
ENDROOT
BRANCH  18  19
ATOM     19  CB  SER A  16      -2.242   9.935  15.479  1.00  3.12     0.199 C 
BRANCH  19  20
ATOM     20  OG  SER A  16      -3.447   9.283  15.117  1.00  1.00    -0.398 OA
ATOM     21  H04 SER A  16      -3.634   9.449  14.190  1.00  1.00     0.209 HD
ENDBRANCH  19  20
ENDBRANCH  18  19
END_RES SER A  16
BEGIN_RES LEU A  32
REMARK  2 active torsions:
REMARK  status: ('A' for Active; 'I' for Inactive)
REMARK   10  A    between atoms: CA   and  CB  
REMARK   11  A    between atoms: CB   and  CG  
ROOT
ATOM     22  CA  LEU A  32     -10.272  -4.106   1.587  1.00 16.16     0.177 C 
ENDROOT
BRANCH  22  23
ATOM     23  CB  LEU A  32     -11.613  -3.858   0.880  1.00 12.35     0.038 C 
BRANCH  23  24
ATOM     24  CG  LEU A  32     -12.653  -4.944   1.223  1.00  9.77    -0.020 C 
ATOM     25  CD1 LEU A  32     -12.351  -6.217   0.469  1.00  4.35     0.009 C 
ATOM     26  CD2 LEU A  32     -12.670  -5.222   2.704  1.00 10.60     0.009 C 
ENDBRANCH  23  24
ENDBRANCH  22  23
END_RES LEU A  32
BEGIN_RES HIS A  38
REMARK  2 active torsions:
REMARK  status: ('A' for Active; 'I' for Inactive)
REMARK   12  A    between atoms: CA   and  CB  
REMARK   13  A    between atoms: CB   and  CG  
ROOT
ATOM     27  CA  HIS A  38     -10.959   4.941   1.621  1.00 16.94     0.182 C 
ENDROOT
BRANCH  27  28
ATOM     28  CB  HIS A  38     -11.810   4.840   2.881  1.00 15.47     0.095 C 
BRANCH  28  29
ATOM     29  CG  HIS A  38     -12.955   3.886   2.762  1.00 18.62     0.053 A 
ATOM     30  CD2 HIS A  38     -14.108   3.966   2.056  1.00 15.06     0.116 A 
ATOM     31  NE2 HIS A  38     -14.796   2.801   2.277  1.00 18.12    -0.359 N 
ATOM     32  CE1 HIS A  38     -14.094   2.034   3.088  1.00 14.78     0.207 A 
ATOM     33  H06 HIS A  38     -15.696   2.568   1.882  1.00 18.12     0.166 HD
ATOM     34  ND1 HIS A  38     -12.979   2.665   3.397  1.00 16.58    -0.247 NA
ENDBRANCH  28  29
ENDBRANCH  27  28
END_RES HIS A  38
BEGIN_RES TRP A  63
REMARK  2 active torsions:
REMARK  status: ('A' for Active; 'I' for Inactive)
REMARK   14  A    between atoms: CA   and  CB  
REMARK   15  A    between atoms: CB   and  CG  
ROOT
ATOM     35  CA  TRP A  63     -22.437   6.257   6.543  1.00 27.04     0.181 C 
ENDROOT
BRANCH  35  36
ATOM     36  CB  TRP A  63     -22.360   6.642   5.068  1.00 31.37     0.075 C 
BRANCH  36  37
ATOM     37  CG  TRP A  63     -20.959   6.912   4.560  1.00 34.37    -0.028 A 
ATOM     38  CD2 TRP A  63     -19.872   5.980   4.478  1.00 33.79    -0.002 A 
ATOM     39  CE3 TRP A  63     -19.706   4.643   4.848  1.00 32.99     0.014 A 
ATOM     40  CE2 TRP A  63     -18.787   6.657   3.878  1.00 35.84     0.042 A 
ATOM     41  CZ3 TRP A  63     -18.483   4.033   4.614  1.00 32.93     0.001 A 
ATOM     42  CH2 TRP A  63     -17.423   4.733   4.016  1.00 39.24     0.002 A 
ATOM     43  CZ2 TRP A  63     -17.556   6.043   3.641  1.00 37.99     0.030 A 
ATOM     44  NE1 TRP A  63     -19.200   7.934   3.614  1.00 37.98    -0.365 N 
ATOM     45  H06 TRP A  63     -18.638   8.655   3.184  1.00 37.98     0.165 HD
ATOM     46  CD1 TRP A  63     -20.502   8.076   4.028  1.00 38.16     0.096 A 
ENDBRANCH  36  37
ENDBRANCH  35  36
END_RES TRP A  63
BEGIN_RES LEU A  66
REMARK  2 active torsions:
REMARK  status: ('A' for Active; 'I' for Inactive)
REMARK   16  A    between atoms: CA   and  CB  
REMARK   17  A    between atoms: CB   and  CG  
ROOT
ATOM     47  CA  LEU A  66     -20.004   6.489  11.120  1.00 10.90     0.177 C 
ENDROOT
BRANCH  47  48
ATOM     48  CB  LEU A  66     -19.626   5.453  10.069  1.00 13.57     0.038 C 
BRANCH  48  49
ATOM     49  CG  LEU A  66     -19.084   4.115  10.569  1.00  8.73    -0.020 C 
ATOM     50  CD1 LEU A  66     -17.764   4.304  11.269  1.00 14.23     0.009 C 
ATOM     51  CD2 LEU A  66     -20.091   3.516  11.518  1.00  1.92     0.009 C 
ENDBRANCH  48  49
ENDBRANCH  47  48
END_RES LEU A  66
BEGIN_RES PHE A  70
REMARK  2 active torsions:
REMARK  status: ('A' for Active; 'I' for Inactive)
REMARK   18  A    between atoms: CA   and  CB  
REMARK   19  A    between atoms: CB   and  CG  
ROOT
ATOM     52  CA  PHE A  70     -14.974   9.434  13.165  1.00  8.78     0.180 C 
ENDROOT
BRANCH  52  53
ATOM     53  CB  PHE A  70     -14.707   9.132  11.681  1.00  6.33     0.073 C 
BRANCH  53  54
ATOM     54  CG  PHE A  70     -13.987   7.831  11.455  1.00  3.42    -0.056 A 
ATOM     55  CD1 PHE A  70     -13.429   7.129  12.513  1.00 13.88     0.007 A 
ATOM     56  CE1 PHE A  70     -12.716   5.938  12.290  1.00 12.71     0.001 A 
ATOM     57  CZ  PHE A  70     -12.562   5.444  10.994  1.00  4.21     0.000 A 
ATOM     58  CE2 PHE A  70     -13.116   6.134   9.931  1.00  2.83     0.001 A 
ATOM     59  CD2 PHE A  70     -13.826   7.324  10.165  1.00  1.00     0.007 A 
ENDBRANCH  53  54
ENDBRANCH  52  53
END_RES PHE A  70
BEGIN_RES TYR A  73
REMARK  3 active torsions:
REMARK  status: ('A' for Active; 'I' for Inactive)
REMARK   20  A    between atoms: CA   and  CB  
REMARK   21  A    between atoms: CB   and  CG  
REMARK   22  A    between atoms: CZ   and  OH  
ROOT
ATOM     60  CA  TYR A  73     -13.212  10.166  17.260  1.00 12.17     0.180 C 
ENDROOT
BRANCH  60  61
ATOM     61  CB  TYR A  73     -13.301   8.846  16.517  1.00 12.84     0.073 C 
BRANCH  61  62
ATOM     62  CG  TYR A  73     -12.045   8.050  16.590  1.00 15.89    -0.056 A 
ATOM     63  CD1 TYR A  73     -11.289   7.809  15.464  1.00 16.00     0.010 A 
ATOM     64  CE1 TYR A  73     -10.129   7.038  15.524  1.00 13.55     0.037 A 
ATOM     65  CZ  TYR A  73      -9.733   6.505  16.735  1.00 18.13     0.065 A 
ATOM     66  CE2 TYR A  73     -10.470   6.731  17.874  1.00 15.89     0.037 A 
ATOM     67  CD2 TYR A  73     -11.622   7.502  17.796  1.00 21.86     0.010 A 
BRANCH  65  68
ATOM     68  OH  TYR A  73      -8.591   5.747  16.818  1.00 12.12    -0.361 OA
ATOM     69  H08 TYR A  73      -7.898   6.258  17.243  1.00 12.12     0.217 HD
ENDBRANCH  65  68
ENDBRANCH  61  62
ENDBRANCH  60  61
END_RES TYR A  73
BEGIN_RES PHE A  77
REMARK  2 active torsions:
REMARK  status: ('A' for Active; 'I' for Inactive)
REMARK   23  A    between atoms: CA   and  CB  
REMARK   24  A    between atoms: CB   and  CG  
ROOT
ATOM     70  CA  PHE A  77      -8.400  10.581  20.110  1.00 17.17     0.180 C 
ENDROOT
BRANCH  70  71
ATOM     71  CB  PHE A  77      -8.228   9.750  18.851  1.00 10.44     0.073 C 
BRANCH  71  72
ATOM     72  CG  PHE A  77      -7.241   8.635  18.995  1.00  6.07    -0.056 A 
ATOM     73  CD2 PHE A  77      -6.028   8.685  18.346  1.00  9.61     0.007 A 
ATOM     74  CE2 PHE A  77      -5.105   7.655  18.475  1.00  1.00     0.001 A 
ATOM     75  CZ  PHE A  77      -5.399   6.559  19.269  1.00  1.92     0.000 A 
ATOM     76  CE1 PHE A  77      -6.606   6.493  19.926  1.00  9.25     0.001 A 
ATOM     77  CD1 PHE A  77      -7.525   7.533  19.786  1.00  9.63     0.007 A 
ENDBRANCH  71  72
ENDBRANCH  70  71
END_RES PHE A  77
BEGIN_RES LEU A  96
REMARK  2 active torsions:
REMARK  status: ('A' for Active; 'I' for Inactive)
REMARK   25  A    between atoms: CA   and  CB  
REMARK   26  A    between atoms: CB   and  CG  
ROOT
ATOM     78  CA  LEU A  96       0.717   6.481  17.359  1.00 16.08     0.177 C 
ENDROOT
BRANCH  78  79
ATOM     79  CB  LEU A  96      -0.370   7.101  18.230  1.00 18.83     0.038 C 
BRANCH  79  80
ATOM     80  CG  LEU A  96      -0.237   6.799  19.722  1.00 19.03    -0.020 C 
ATOM     81  CD1 LEU A  96      -1.505   7.229  20.422  1.00 28.17     0.009 C 
ATOM     82  CD2 LEU A  96      -0.047   5.316  19.945  1.00 22.01     0.009 C 
ENDBRANCH  79  80
ENDBRANCH  78  79
END_RES LEU A  96
BEGIN_RES VAL A  98
REMARK  1 active torsions:
REMARK  status: ('A' for Active; 'I' for Inactive)
REMARK   27  A    between atoms: CA   and  CB  
ROOT
ATOM     83  CA  VAL A  98      -3.928   2.082  14.897  1.00 19.83     0.180 C 
ENDROOT
BRANCH  83  84
ATOM     84  CB  VAL A  98      -5.203   2.807  15.281  1.00 17.87     0.009 C 
ATOM     85  CG2 VAL A  98      -5.272   2.974  16.777  1.00 29.90     0.012 C 
ATOM     86  CG1 VAL A  98      -6.400   2.032  14.771  1.00 14.79     0.012 C 
ENDBRANCH  83  84
END_RES VAL A  98
BEGIN_RES ASN A 112
REMARK  2 active torsions:
REMARK  status: ('A' for Active; 'I' for Inactive)
REMARK   28  A    between atoms: CA   and  CB  
REMARK   29  A    between atoms: CB   and  CG  
REMARK       I    between atoms: CG   and  ND2 
ROOT
ATOM     87  CA  ASN A 112     -11.790  -8.793  14.069  1.00 37.70     0.185 C 
ENDROOT
BRANCH  87  88
ATOM     88  CB  ASN A 112     -12.992  -7.945  14.465  1.00 26.24     0.137 C 
BRANCH  88  89
ATOM     89  CG  ASN A 112     -13.811  -8.561  15.577  1.00 21.77     0.217 C 
ATOM     90  ND2 ASN A 112     -14.959  -9.134  15.214  1.00  9.31    -0.370 N 
ATOM     91  H04 ASN A 112     -15.552  -9.562  15.911  1.00  9.31     0.159 HD
ATOM     92  H05 ASN A 112     -15.234  -9.141  14.242  1.00  9.31     0.159 HD
ATOM     93  OD1 ASN A 112     -13.424  -8.520  16.751  1.00 21.61    -0.274 OA
ENDBRANCH  88  89
ENDBRANCH  87  88
END_RES ASN A 112
BEGIN_RES PHE A 114
REMARK  2 active torsions:
REMARK  status: ('A' for Active; 'I' for Inactive)
REMARK   30  A    between atoms: CA   and  CB  
REMARK   31  A    between atoms: CB   and  CG  
ROOT
ATOM     94  CA  PHE A 114      -7.754  -3.619  17.012  1.00 26.06     0.180 C 
ENDROOT
BRANCH  94  95
ATOM     95  CB  PHE A 114      -8.890  -3.080  17.867  1.00 19.95     0.073 C 
BRANCH  95  96
ATOM     96  CG  PHE A 114      -8.710  -1.649  18.257  1.00 17.65    -0.056 A 
ATOM     97  CD1 PHE A 114      -9.033  -1.214  19.540  1.00 13.01     0.007 A 
ATOM     98  CE1 PHE A 114      -8.893   0.122  19.894  1.00  6.74     0.001 A 
ATOM     99  CZ  PHE A 114      -8.423   1.045  18.964  1.00  6.27     0.000 A 
ATOM    100  CE2 PHE A 114      -8.098   0.623  17.685  1.00 17.36     0.001 A 
ATOM    101  CD2 PHE A 114      -8.242  -0.723  17.335  1.00 18.39     0.007 A 
ENDBRANCH  95  96
ENDBRANCH  94  95
END_RES PHE A 114
BEGIN_RES VAL A 116
REMARK  1 active torsions:
REMARK  status: ('A' for Active; 'I' for Inactive)
REMARK   32  A    between atoms: CA   and  CB  
ROOT
ATOM    102  CA  VAL A 116      -2.467   0.283  18.565  1.00 13.48     0.180 C 
ENDROOT
BRANCH 102 103
ATOM    103  CB  VAL A 116      -3.101   1.238  19.599  1.00 20.86     0.009 C 
ATOM    104  CG1 VAL A 116      -2.797   2.688  19.211  1.00 25.01     0.012 C 
ATOM    105  CG2 VAL A 116      -4.587   0.994  19.717  1.00 25.34     0.012 C 
ENDBRANCH 102 103
END_RES VAL A 116
BEGIN_RES ILE A 123
REMARK  2 active torsions:
REMARK  status: ('A' for Active; 'I' for Inactive)
REMARK   33  A    between atoms: CA   and  CB  
REMARK   34  A    between atoms: CB   and  CG1 
ROOT
ATOM    106  CA  ILE A 123       1.557  -1.626  23.222  1.00 15.07     0.180 C 
ENDROOT
BRANCH 106 107
ATOM    107  CB  ILE A 123       1.697  -0.112  23.461  1.00 14.41     0.013 C 
ATOM    108  CG2 ILE A 123       3.119   0.216  23.883  1.00 18.35     0.012 C 
BRANCH 107 109
ATOM    109  CG1 ILE A 123       1.331   0.660  22.196  1.00 15.23     0.002 C 
ATOM    110  CD1 ILE A 123       0.257   1.699  22.411  1.00 14.67     0.005 C 
ENDBRANCH 107 109
ENDBRANCH 106 107
END_RES ILE A 123
BEGIN_RES LEU A 124
REMARK  2 active torsions:
REMARK  status: ('A' for Active; 'I' for Inactive)
REMARK   35  A    between atoms: CA   and  CB  
REMARK   36  A    between atoms: CB   and  CG  
ROOT
ATOM    111  CA  LEU A 124      -2.057  -2.686  23.524  1.00 11.86     0.177 C 
ENDROOT
BRANCH 111 112
ATOM    112  CB  LEU A 124      -2.698  -1.652  24.429  1.00 14.60     0.038 C 
BRANCH 112 113
ATOM    113  CG  LEU A 124      -2.576  -0.245  23.864  1.00 16.19    -0.020 C 
ATOM    114  CD1 LEU A 124      -3.966   0.231  23.399  1.00 22.07     0.009 C 
ATOM    115  CD2 LEU A 124      -1.991   0.668  24.913  1.00  9.12     0.009 C 
ENDBRANCH 112 113
ENDBRANCH 111 112
END_RES LEU A 124
BEGIN_RES PHE A 126
REMARK  2 active torsions:
REMARK  status: ('A' for Active; 'I' for Inactive)
REMARK   37  A    between atoms: CA   and  CB  
REMARK   38  A    between atoms: CB   and  CG  
ROOT
ATOM    116  CA  PHE A 126      -8.784  -4.792  22.233  1.00 23.15     0.180 C 
ENDROOT
BRANCH 116 117
ATOM    117  CB  PHE A 126      -9.823  -4.011  21.461  1.00 20.65     0.073 C 
BRANCH 117 118
ATOM    118  CG  PHE A 126     -10.941  -3.529  22.300  1.00 23.65    -0.056 A 
ATOM    119  CD2 PHE A 126     -10.739  -2.538  23.244  1.00 36.63     0.007 A 
ATOM    120  CE2 PHE A 126     -11.800  -2.080  24.037  1.00 36.27     0.001 A 
ATOM    121  CZ  PHE A 126     -13.066  -2.624  23.879  1.00 18.06     0.000 A 
ATOM    122  CE1 PHE A 126     -13.272  -3.612  22.936  1.00  5.50     0.001 A 
ATOM    123  CD1 PHE A 126     -12.211  -4.059  22.149  1.00 15.29     0.007 A 
ENDBRANCH 117 118
ENDBRANCH 116 117
END_RES PHE A 126
BEGIN_RES TRP A 131
REMARK  2 active torsions:
REMARK  status: ('A' for Active; 'I' for Inactive)
REMARK   39  A    between atoms: CA   and  CB  
REMARK   40  A    between atoms: CB   and  CG  
ROOT
ATOM    124  CA  TRP A 131      -8.096  -3.335  26.542  1.00 14.52     0.181 C 
ENDROOT
BRANCH 124 125
ATOM    125  CB  TRP A 131      -7.651  -1.877  26.607  1.00 13.06     0.075 C 
BRANCH 125 126
ATOM    126  CG  TRP A 131      -7.990  -1.069  25.374  1.00 16.97    -0.028 A 
ATOM    127  CD2 TRP A 131      -9.055  -0.123  25.241  1.00 11.34    -0.002 A 
ATOM    128  CE2 TRP A 131      -8.998   0.396  23.933  1.00  5.87     0.042 A 
ATOM    129  CE3 TRP A 131     -10.054   0.333  26.107  1.00  3.80     0.014 A 
ATOM    130  CZ2 TRP A 131      -9.902   1.353  23.470  1.00  1.35     0.030 A 
ATOM    131  NE1 TRP A 131      -7.948  -0.206  23.296  1.00 13.90    -0.365 N 
ATOM    132  CH2 TRP A 131     -10.872   1.785  24.341  1.00  1.00     0.002 A 
ATOM    133  CZ3 TRP A 131     -10.954   1.280  25.653  1.00  1.00     0.001 A 
ATOM    134  CD1 TRP A 131      -7.346  -1.084  24.167  1.00 17.22     0.096 A 
ATOM    135  H07 TRP A 131      -7.661  -0.034  22.344  1.00 13.90     0.165 HD
ENDBRANCH 125 126
ENDBRANCH 124 125
END_RES TRP A 131
BEGIN_RES LEU A 148
REMARK  2 active torsions:
REMARK  status: ('A' for Active; 'I' for Inactive)
REMARK   41  A    between atoms: CA   and  CB  
REMARK   42  A    between atoms: CB   and  CG  
ROOT
ATOM    136  CA  LEU A 148      -9.018   3.259  29.295  1.00 16.99     0.177 C 
ENDROOT
BRANCH 136 137
ATOM    137  CB  LEU A 148      -8.166   2.574  28.236  1.00  6.39     0.038 C 
BRANCH 137 138
ATOM    138  CG  LEU A 148      -7.971   3.194  26.868  1.00  1.00    -0.020 C 
ATOM    139  CD2 LEU A 148      -6.757   2.614  26.201  1.00  1.00     0.009 C 
ATOM    140  CD1 LEU A 148      -7.818   4.694  27.043  1.00  2.71     0.009 C 
ENDBRANCH 137 138
ENDBRANCH 136 137
END_RES LEU A 148
BEGIN_RES THR A 154
REMARK  2 active torsions:
REMARK  status: ('A' for Active; 'I' for Inactive)
REMARK   43  A    between atoms: CA   and  CB  
REMARK   44  A    between atoms: CB   and  OG1 
ROOT
ATOM    141  CA  THR A 154     -15.990   3.959  24.426  1.00 20.45     0.205 C 
ENDROOT
BRANCH 141 142
ATOM    142  CB  THR A 154     -14.777   4.829  24.694  1.00 16.79     0.146 C 
ATOM    143  CG2 THR A 154     -13.591   4.337  23.887  1.00 20.24     0.042 C 
BRANCH 142 144
ATOM    144  OG1 THR A 154     -15.076   6.175  24.304  1.00 18.84    -0.393 OA
ATOM    145  H06 THR A 154     -14.516   6.426  23.565  1.00 18.84     0.210 HD
ENDBRANCH 142 144
ENDBRANCH 141 142
END_RES THR A 154
BEGIN_RES VAL A 158
REMARK  1 active torsions:
REMARK  status: ('A' for Active; 'I' for Inactive)
REMARK   45  A    between atoms: CA   and  CB  
ROOT
ATOM    146  CA  VAL A 158     -15.487  -0.189  19.892  1.00 15.49     0.180 C 
ENDROOT
BRANCH 146 147
ATOM    147  CB  VAL A 158     -14.291  -0.273  20.822  1.00  6.52     0.009 C 
ATOM    148  CG1 VAL A 158     -13.218  -1.165  20.241  1.00  1.00     0.012 C 
ATOM    149  CG2 VAL A 158     -13.763   1.109  21.051  1.00  5.99     0.012 C 
ENDBRANCH 146 147
END_RES VAL A 158
BEGIN_RES LEU A 161
REMARK  2 active torsions:
REMARK  status: ('A' for Active; 'I' for Inactive)
REMARK   46  A    between atoms: CA   and  CB  
REMARK   47  A    between atoms: CB   and  CG  
ROOT
ATOM    150  CA  LEU A 161     -18.031  -1.858  15.935  1.00 13.31     0.177 C 
ENDROOT
BRANCH 150 151
ATOM    151  CB  LEU A 161     -17.046  -0.706  16.001  1.00 14.13     0.038 C 
BRANCH 151 152
ATOM    152  CG  LEU A 161     -17.437   0.560  15.250  1.00 19.39    -0.020 C 
ATOM    153  CD2 LEU A 161     -18.870   0.926  15.553  1.00 27.75     0.009 C 
ATOM    154  CD1 LEU A 161     -17.268   0.323  13.774  1.00 18.59     0.009 C 
ENDBRANCH 151 152
ENDBRANCH 150 151
END_RES LEU A 161
BEGIN_RES GLN A 168
REMARK  3 active torsions:
REMARK  status: ('A' for Active; 'I' for Inactive)
REMARK   48  A    between atoms: CA   and  CB  
REMARK   49  A    between atoms: CB   and  CG  
REMARK   50  A    between atoms: CG   and  CD  
REMARK       I    between atoms: CD   and  NE2 
ROOT
ATOM    155  CA  GLN A 168     -22.035  -6.020   8.155  1.00 30.94     0.177 C 
ENDROOT
BRANCH 155 156
ATOM    156  CB  GLN A 168     -23.054  -5.218   8.946  1.00 41.76     0.044 C 
BRANCH 156 157
ATOM    157  CG  GLN A 168     -24.466  -5.726   8.839  1.00 61.20     0.105 C 
BRANCH 157 158
ATOM    158  CD  GLN A 168     -25.069  -5.438   7.478  1.00 75.49     0.215 C 
ATOM    159  NE2 GLN A 168     -25.480  -6.498   6.779  1.00 85.00    -0.370 N 
ATOM    160  H06 GLN A 168     -25.888  -6.372   5.864  1.00 85.00     0.159 HD
ATOM    161  H07 GLN A 168     -25.382  -7.427   7.166  1.00 85.00     0.159 HD
ATOM    162  OE1 GLN A 168     -25.161  -4.278   7.051  1.00 73.64    -0.274 OA
ENDBRANCH 157 158
ENDBRANCH 156 157
ENDBRANCH 155 156
END_RES GLN A 168
ENDMDL
MODEL 5
REMARK VINA RESULT:      -6.6      2.076      9.554
REMARK  Name = human_CD1d_Tween20_pred.rank_0
REMARK  75 active torsions:
REMARK  status: ('A' for Active; 'I' for Inactive)
REMARK    1  A    between atoms: C_1  and  C_3
REMARK    2  A    between atoms: C_3  and  O_4
REMARK    3  A    between atoms: O_4  and  C_5
REMARK    4  A    between atoms: C_5  and  C_7
REMARK    5  A    between atoms: O_6  and  C_7
REMARK    6  A    between atoms: O_6  and  C_9
REMARK    7  A    between atoms: O_8  and  C_11
REMARK    8  A    between atoms: O_8  and  C_13
REMARK    9  A    between atoms: C_9  and  C_11
REMARK   10  A    between atoms: O_10  and  C_15
REMARK   11  A    between atoms: O_10  and  C_17
REMARK   12  A    between atoms: O_12  and  C_19
REMARK   13  A    between atoms: O_12  and  C_21
REMARK   14  A    between atoms: C_13  and  C_15
REMARK   15  A    between atoms: O_14  and  C_23
REMARK   16  A    between atoms: O_14  and  C_25
REMARK   17  A    between atoms: O_16  and  C_27
REMARK   18  A    between atoms: O_16  and  C_29
REMARK   19  A    between atoms: C_17  and  C_19
REMARK   20  A    between atoms: O_18  and  C_31
REMARK   21  A    between atoms: O_18  and  C_33
REMARK   22  A    between atoms: O_20  and  C_35
REMARK   23  A    between atoms: O_20  and  C_37
REMARK   24  A    between atoms: C_21  and  C_23
REMARK   25  A    between atoms: C_21  and  C_61
REMARK   26  A    between atoms: O_22  and  C_39
REMARK   27  A    between atoms: O_22  and  C_41
REMARK   28  A    between atoms: O_24  and  C_43
REMARK   29  A    between atoms: O_24  and  C_45
REMARK   30  A    between atoms: C_25  and  C_27
REMARK   31  A    between atoms: O_28  and  C_63
REMARK   32  A    between atoms: O_28  and  C_64
REMARK   33  A    between atoms: C_29  and  C_31
REMARK   34  A    between atoms: O_30  and  C_65
REMARK   35  A    between atoms: O_30  and  C_66
REMARK   36  A    between atoms: O_32  and  C_67
REMARK   37  A    between atoms: O_32  and  C_68
REMARK   38  A    between atoms: C_33  and  C_35
REMARK   39  A    between atoms: O_34  and  C_69
REMARK   40  A    between atoms: O_34  and  C_70
REMARK   41  A    between atoms: O_36  and  C_71
REMARK   42  A    between atoms: O_36  and  C_72
REMARK   43  A    between atoms: C_37  and  C_39
REMARK   44  A    between atoms: O_40  and  C_74
REMARK   45  A    between atoms: O_40  and  C_75
REMARK   46  A    between atoms: C_41  and  C_43
REMARK   47  A    between atoms: O_42  and  C_76
REMARK   48  A    between atoms: O_42  and  C_77
REMARK   49  A    between atoms: O_44  and  C_78
REMARK   50  A    between atoms: O_44  and  C_79
REMARK   51  A    between atoms: C_45  and  C_47
REMARK   52  A    between atoms: O_46  and  C_80
REMARK   53  A    between atoms: O_46  and  C_81
REMARK   54  A    between atoms: C_47  and  C_49
REMARK   55  A    between atoms: O_48  and  C_82
REMARK   56  A    between atoms: O_48  and  C_83
REMARK   57  A    between atoms: C_49  and  C_51
REMARK   58  A    between atoms: C_51  and  C_53
REMARK   59  A    between atoms: C_53  and  C_54
REMARK   60  A    between atoms: C_54  and  C_55
REMARK   61  A    between atoms: C_55  and  C_56
REMARK   62  A    between atoms: C_56  and  C_57
REMARK   63  A    between atoms: C_57  and  C_58
REMARK   64  A    between atoms: C_58  and  C_59
REMARK   65  A    between atoms: C_61  and  C_62
REMARK   66  A    between atoms: C_64  and  C_65
REMARK   67  A    between atoms: C_66  and  C_67
REMARK   68  A    between atoms: C_68  and  C_69
REMARK   69  A    between atoms: C_70  and  C_71
REMARK   70  A    between atoms: C_72  and  C_73
REMARK   71  A    between atoms: C_75  and  C_76
REMARK   72  A    between atoms: C_77  and  C_78
REMARK   73  A    between atoms: C_79  and  C_80
REMARK   74  A    between atoms: C_81  and  C_82
REMARK   75  A    between atoms: C_83  and  C_84
REMARK                            x       y       z     vdW  Elec       q    Type
REMARK                         _______ _______ _______ _____ _____    ______ ____
ROOT
ATOM      1  C   UNL     1     -13.284   7.839  20.996  0.00  0.00    +0.000 C 
ENDROOT
BRANCH   1   2
ATOM      2  C   UNL     1     -11.772   7.710  21.433  0.00  0.00    +0.000 C 
BRANCH   2   4
ATOM      3  O   UNL     1     -11.115   6.700  23.623  0.00  0.00    +0.000 OA
ATOM      4  C   UNL     1     -11.554   6.433  22.192  0.00  0.00    +0.000 C 
ATOM      5  C   UNL     1     -10.320   5.748  21.601  0.00  0.00    +0.000 C 
ATOM      6  C   UNL     1      -9.362   5.788  22.792  0.00  0.00    +0.000 C 
ATOM      7  C   UNL     1     -10.176   5.852  24.053  0.00  0.00    +0.000 C 
BRANCH   6   8
ATOM      8  O   UNL     1      -8.516   6.913  22.557  0.00  0.00    +0.000 OA
BRANCH   8   9
ATOM      9  C   UNL     1      -7.505   7.103  23.529  0.00  0.00    +0.000 C 
BRANCH   9  10
ATOM     10  C   UNL     1      -6.359   6.191  23.218  0.00  0.00    +0.000 C 
BRANCH  10  11
ATOM     11  O   UNL     1      -5.164   6.934  23.164  0.00  0.00    +0.000 OA
BRANCH  11  12
ATOM     12  C   UNL     1      -4.090   6.185  22.638  0.00  0.00    +0.000 C 
BRANCH  12  13
ATOM     13  C   UNL     1      -4.415   4.713  22.781  0.00  0.00    +0.000 C 
BRANCH  13  14
ATOM     14  O   UNL     1      -3.403   4.057  23.467  0.00  0.00    +0.000 OA
BRANCH  14  15
ATOM     15  C   UNL     1      -3.611   3.942  24.818  0.00  0.00    +0.000 C 
BRANCH  15  16
ATOM     16  C   UNL     1      -2.522   4.654  25.556  0.00  0.00    +0.000 C 
BRANCH  16  17
ATOM     17  O   UNL     1      -1.263   4.055  25.313  0.00  0.00    +0.000 OA
BRANCH  17  18
ATOM     18  C   UNL     1      -0.250   5.028  25.106  0.00  0.00    +0.000 C 
BRANCH  18  19
ATOM     19  C   UNL     1      -0.147   5.941  26.304  0.00  0.00    +0.000 C 
BRANCH  19  20
ATOM     20  O   UNL     1       0.204   7.232  25.876  0.00  0.00    +0.000 OA
BRANCH  20  21
ATOM     21  C   UNL     1       0.800   7.166  24.588  0.00  0.00    +0.000 C 
BRANCH  21  23
ATOM     22  O   UNL     1       1.028   9.531  25.042  0.00  0.00    +0.000 OA
ATOM     23  C   UNL     1       0.823   8.520  23.981  0.00  0.00    +0.000 C 
ENDBRANCH  21  23
ENDBRANCH  20  21
ENDBRANCH  19  20
ENDBRANCH  18  19
ENDBRANCH  17  18
ENDBRANCH  16  17
ENDBRANCH  15  16
ENDBRANCH  14  15
ENDBRANCH  13  14
ENDBRANCH  12  13
ENDBRANCH  11  12
ENDBRANCH  10  11
ENDBRANCH   9  10
ENDBRANCH   8   9
ENDBRANCH   6   8
BRANCH   5  24
ATOM     24  O   UNL     1     -10.633   4.408  21.335  0.00  0.00    +0.000 OA
BRANCH  24  25
ATOM     25  C   UNL     1     -10.366   4.053  20.019  0.00  0.00    +0.000 C 
BRANCH  25  26
ATOM     26  C   UNL     1     -11.667   3.551  19.349  0.00  0.00    +0.000 C 
BRANCH  26  27
ATOM     27  O   UNL     1     -11.310   2.600  18.353  0.00  0.00    +0.000 OA
BRANCH  27  28
ATOM     28  C   UNL     1     -12.348   1.725  18.111  0.00  0.00    +0.000 C 
BRANCH  28  29
ATOM     29  C   UNL     1     -11.810   0.552  17.289  0.00  0.00    +0.000 C 
BRANCH  29  30
ATOM     30  O   UNL     1     -12.893  -0.185  16.840  0.00  0.00    +0.000 OA
BRANCH  30  31
ATOM     31  C   UNL     1     -13.462   0.341  15.657  0.00  0.00    +0.000 C 
BRANCH  31  32
ATOM     32  C   UNL     1     -13.136  -0.562  14.537  0.00  0.00    +0.000 C 
BRANCH  32  33
ATOM     33  O   UNL     1     -14.334  -0.841  13.840  0.00  0.00    +0.000 OA
BRANCH  33  34
ATOM     34  C   UNL     1     -14.160  -1.931  13.003  0.00  0.00    +0.000 C 
BRANCH  34  35
ATOM     35  C   UNL     1     -13.450  -1.466  11.733  0.00  0.00    +0.000 C 
BRANCH  35  36
ATOM     36  O   UNL     1     -14.217  -0.423  11.150  0.00  0.00    +0.000 OA
BRANCH  36  37
ATOM     37  C   UNL     1     -14.911  -0.900  10.039  0.00  0.00    +0.000 C 
BRANCH  37  39
ATOM     38  O   UNL     1     -14.642   1.408   9.607  0.00  0.00    +0.000 OA
ATOM     39  C   UNL     1     -15.232   0.230   9.097  0.00  0.00    +0.000 C 
ENDBRANCH  37  39
ENDBRANCH  36  37
ENDBRANCH  35  36
ENDBRANCH  34  35
ENDBRANCH  33  34
ENDBRANCH  32  33
ENDBRANCH  31  32
ENDBRANCH  30  31
ENDBRANCH  29  30
ENDBRANCH  28  29
ENDBRANCH  27  28
ENDBRANCH  26  27
ENDBRANCH  25  26
ENDBRANCH  24  25
ENDBRANCH   5  24
ENDBRANCH   2   4
ENDBRANCH   1   2
BRANCH   1  40
ATOM     40  O   UNL     1     -14.150   8.101  22.105  0.00  0.00    +0.000 OA
BRANCH  40  41
ATOM     41  C   UNL     1     -14.971   9.242  21.987  0.00  0.00    +0.000 C 
BRANCH  41  42
ATOM     42  C   UNL     1     -15.879   9.388  23.176  0.00  0.00    +0.000 C 
BRANCH  42  43
ATOM     43  O   UNL     1     -17.204   9.485  22.795  0.00  0.00    +0.000 OA
BRANCH  43  44
ATOM     44  C   UNL     1     -17.422  10.411  21.789  0.00  0.00    +0.000 C 
BRANCH  44  45
ATOM     45  C   UNL     1     -18.874  10.761  21.718  0.00  0.00    +0.000 C 
BRANCH  45  46
ATOM     46  O   UNL     1     -19.166  11.916  22.383  0.00  0.00    +0.000 OA
BRANCH  46  47
ATOM     47  C   UNL     1     -18.015  12.714  22.657  0.00  0.00    +0.000 C 
BRANCH  47  48
ATOM     48  C   UNL     1     -17.983  13.050  24.103  0.00  0.00    +0.000 C 
BRANCH  48  49
ATOM     49  O   UNL     1     -16.854  12.449  24.676  0.00  0.00    +0.000 OA
BRANCH  49  50
ATOM     50  C   UNL     1     -16.267  13.289  25.657  0.00  0.00    +0.000 C 
BRANCH  50  51
ATOM     51  C   UNL     1     -14.802  13.220  25.516  0.00  0.00    +0.000 C 
BRANCH  51  52
ATOM     52  O   UNL     1     -14.254  14.198  26.338  0.00  0.00    +0.000 OA
BRANCH  52  53
ATOM     53  C   UNL     1     -13.256  14.964  25.670  0.00  0.00    +0.000 C 
BRANCH  53  54
ATOM     54  C   UNL     1     -12.472  14.130  24.680  0.00  0.00    +0.000 C 
ATOM     55  O   UNL     1     -12.476  14.765  23.404  0.00  0.00    +0.000 OA
ENDBRANCH  53  54
ENDBRANCH  52  53
ENDBRANCH  51  52
ENDBRANCH  50  51
ENDBRANCH  49  50
ENDBRANCH  48  49
ENDBRANCH  47  48
ENDBRANCH  46  47
ENDBRANCH  45  46
ENDBRANCH  44  45
ENDBRANCH  43  44
ENDBRANCH  42  43
ENDBRANCH  41  42
ENDBRANCH  40  41
ENDBRANCH   1  40
BRANCH   1  56
ATOM     56  C   UNL     1     -13.765   6.576  20.374  0.00  0.00    +0.000 C 
BRANCH  56  57
ATOM     57  O   UNL     1     -14.559   6.982  19.324  0.00  0.00    +0.000 OA
BRANCH  57  58
ATOM     58  C   UNL     1     -15.622   6.040  19.080  0.00  0.00    +0.000 C 
BRANCH  58  59
ATOM     59  C   UNL     1     -15.109   4.901  18.209  0.00  0.00    +0.000 C 
BRANCH  59  60
ATOM     60  O   UNL     1     -14.446   5.402  17.080  0.00  0.00    +0.000 OA
BRANCH  60  61
ATOM     61  C   UNL     1     -14.011   4.391  16.186  0.00  0.00    +0.000 C 
BRANCH  61  62
ATOM     62  C   UNL     1     -12.627   4.663  15.604  0.00  0.00    +0.000 C 
BRANCH  62  63
ATOM     63  O   UNL     1     -12.087   3.459  15.103  0.00  0.00    +0.000 OA
BRANCH  63  64
ATOM     64  C   UNL     1     -10.684   3.439  15.215  0.00  0.00    +0.000 C 
BRANCH  64  65
ATOM     65  C   UNL     1     -10.076   3.896  13.897  0.00  0.00    +0.000 C 
BRANCH  65  66
ATOM     66  O   UNL     1     -10.647   3.113  12.854  0.00  0.00    +0.000 OA
BRANCH  66  67
ATOM     67  C   UNL     1      -9.880   3.113  11.702  0.00  0.00    +0.000 C 
BRANCH  67  68
ATOM     68  C   UNL     1      -8.725   4.073  11.881  0.00  0.00    +0.000 C 
BRANCH  68  69
ATOM     69  O   UNL     1      -8.740   4.945  10.781  0.00  0.00    +0.000 OA
BRANCH  69  70
ATOM     70  C   UNL     1      -9.302   4.381   9.657  0.00  0.00    +0.000 C 
BRANCH  70  71
ATOM     71  C   UNL     1      -9.399   5.425   8.561  0.00  0.00    +0.000 C 
BRANCH  71  72
ATOM     72  O   UNL     1      -9.730   4.715   7.400  0.00  0.00    +0.000 OA
BRANCH  72  74
ATOM     73  O   UNL     1     -10.022   6.224   5.808  0.00  0.00    +0.000 OA
ATOM     74  C   UNL     1     -10.504   5.431   6.547  0.00  0.00    +0.000 C 
BRANCH  74  75
ATOM     75  C   UNL     1     -11.946   5.149   6.607  0.00  0.00    +0.000 C 
BRANCH  75  76
ATOM     76  C   UNL     1     -12.152   3.781   7.284  0.00  0.00    +0.000 C 
BRANCH  76  77
ATOM     77  C   UNL     1     -13.422   3.140   6.758  0.00  0.00    +0.000 C 
BRANCH  77  78
ATOM     78  C   UNL     1     -14.468   4.218   6.521  0.00  0.00    +0.000 C 
BRANCH  78  79
ATOM     79  C   UNL     1     -15.417   4.221   7.694  0.00  0.00    +0.000 C 
BRANCH  79  80
ATOM     80  C   UNL     1     -16.033   5.621   7.783  0.00  0.00    +0.000 C 
BRANCH  80  81
ATOM     81  C   UNL     1     -16.500   5.857   9.199  0.00  0.00    +0.000 C 
BRANCH  81  82
ATOM     82  C   UNL     1     -16.046   4.695  10.077  0.00  0.00    +0.000 C 
BRANCH  82  83
ATOM     83  C   UNL     1     -16.375   4.953  11.540  0.00  0.00    +0.000 C 
BRANCH  83  84
ATOM     84  C   UNL     1     -15.901   3.845  12.433  0.00  0.00    +0.000 C 
ATOM     85  C   UNL     1     -16.529   2.535  12.065  0.00  0.00    +0.000 C 
ENDBRANCH  83  84
ENDBRANCH  82  83
ENDBRANCH  81  82
ENDBRANCH  80  81
ENDBRANCH  79  80
ENDBRANCH  78  79
ENDBRANCH  77  78
ENDBRANCH  76  77
ENDBRANCH  75  76
ENDBRANCH  74  75
ENDBRANCH  72  74
ENDBRANCH  71  72
ENDBRANCH  70  71
ENDBRANCH  69  70
ENDBRANCH  68  69
ENDBRANCH  67  68
ENDBRANCH  66  67
ENDBRANCH  65  66
ENDBRANCH  64  65
ENDBRANCH  63  64
ENDBRANCH  62  63
ENDBRANCH  61  62
ENDBRANCH  60  61
ENDBRANCH  59  60
ENDBRANCH  58  59
ENDBRANCH  57  58
ENDBRANCH  56  57
ENDBRANCH   1  56
TORSDOF 75
BEGIN_RES LEU A  10
REMARK  2 active torsions:
REMARK  status: ('A' for Active; 'I' for Inactive)
REMARK    1  A    between atoms: CA   and  CB  
REMARK    2  A    between atoms: CB   and  CG  
ROOT
ATOM      1  CA  LEU A  10     -10.775  -4.871   5.898  1.00 25.14     0.177 C 
ENDROOT
BRANCH   1   2
ATOM      2  CB  LEU A  10     -12.191  -4.387   6.226  1.00 17.87     0.038 C 
BRANCH   2   3
ATOM      3  CG  LEU A  10     -12.491  -2.956   5.774  1.00 24.95    -0.020 C 
ATOM      4  CD2 LEU A  10     -13.626  -2.420   6.580  1.00 26.38     0.009 C 
ATOM      5  CD1 LEU A  10     -12.820  -2.912   4.292  1.00 28.12     0.009 C 
ENDBRANCH   2   3
ENDBRANCH   1   2
END_RES LEU A  10
BEGIN_RES CYS A  12
REMARK  2 active torsions:
REMARK  status: ('A' for Active; 'I' for Inactive)
REMARK    3  A    between atoms: CA   and  CB  
REMARK    4  A    between atoms: CB   and  SG  
ROOT
ATOM      6  CA  CYS A  12      -8.555   0.470   8.750  1.00 23.16     0.185 C 
ENDROOT
BRANCH   6   7
ATOM      7  CB  CYS A  12      -9.828   0.763   9.555  1.00 20.43     0.105 C 
BRANCH   7   8
ATOM      8  SG  CYS A  12     -11.400   0.318   8.755  1.00 24.64    -0.180 SA
ATOM      9  H04 CYS A  12     -11.833   1.347   8.015  1.00 24.64     0.101 HD
ENDBRANCH   7   8
ENDBRANCH   6   7
END_RES CYS A  12
BEGIN_RES GLN A  14
REMARK  3 active torsions:
REMARK  status: ('A' for Active; 'I' for Inactive)
REMARK    5  A    between atoms: CA   and  CB  
REMARK    6  A    between atoms: CB   and  CG  
REMARK    7  A    between atoms: CG   and  CD  
REMARK       I    between atoms: CD   and  NE2 
ROOT
ATOM     10  CA  GLN A  14      -4.645   5.402  11.377  1.00 10.43     0.177 C 
ENDROOT
BRANCH  10  11
ATOM     11  CB  GLN A  14      -5.541   5.549  12.608  1.00 14.45     0.044 C 
BRANCH  11  12
ATOM     12  CG  GLN A  14      -6.364   6.817  12.625  1.00 13.74     0.105 C 
BRANCH  12  13
ATOM     13  CD  GLN A  14      -5.765   7.882  13.512  1.00 16.29     0.215 C 
ATOM     14  NE2 GLN A  14      -6.332   8.053  14.687  1.00  8.57    -0.370 N 
ATOM     15  H06 GLN A  14      -5.973   8.750  15.323  1.00  8.57     0.159 HD
ATOM     16  H07 GLN A  14      -7.126   7.488  14.952  1.00  8.57     0.159 HD
ATOM     17  OE1 GLN A  14      -4.802   8.539  13.147  1.00 23.55    -0.274 OA
ENDBRANCH  12  13
ENDBRANCH  11  12
ENDBRANCH  10  11
END_RES GLN A  14
BEGIN_RES SER A  16
REMARK  2 active torsions:
REMARK  status: ('A' for Active; 'I' for Inactive)
REMARK    8  A    between atoms: CA   and  CB  
REMARK    9  A    between atoms: CB   and  OG  
ROOT
ATOM     18  CA  SER A  16      -1.305  10.019  14.282  1.00  2.34     0.200 C 
ENDROOT
BRANCH  18  19
ATOM     19  CB  SER A  16      -2.242   9.935  15.479  1.00  3.12     0.199 C 
BRANCH  19  20
ATOM     20  OG  SER A  16      -2.301   8.606  15.966  1.00  1.00    -0.398 OA
ATOM     21  H04 SER A  16      -2.666   8.606  16.854  1.00  1.00     0.209 HD
ENDBRANCH  19  20
ENDBRANCH  18  19
END_RES SER A  16
BEGIN_RES LEU A  32
REMARK  2 active torsions:
REMARK  status: ('A' for Active; 'I' for Inactive)
REMARK   10  A    between atoms: CA   and  CB  
REMARK   11  A    between atoms: CB   and  CG  
ROOT
ATOM     22  CA  LEU A  32     -10.272  -4.106   1.587  1.00 16.16     0.177 C 
ENDROOT
BRANCH  22  23
ATOM     23  CB  LEU A  32     -11.613  -3.858   0.880  1.00 12.35     0.038 C 
BRANCH  23  24
ATOM     24  CG  LEU A  32     -12.571  -5.057   1.029  1.00  9.77    -0.020 C 
ATOM     25  CD1 LEU A  32     -14.001  -4.580   1.113  1.00  4.35     0.009 C 
ATOM     26  CD2 LEU A  32     -12.421  -6.012  -0.127  1.00 10.60     0.009 C 
ENDBRANCH  23  24
ENDBRANCH  22  23
END_RES LEU A  32
BEGIN_RES HIS A  38
REMARK  2 active torsions:
REMARK  status: ('A' for Active; 'I' for Inactive)
REMARK   12  A    between atoms: CA   and  CB  
REMARK   13  A    between atoms: CB   and  CG  
ROOT
ATOM     27  CA  HIS A  38     -10.959   4.941   1.621  1.00 16.94     0.182 C 
ENDROOT
BRANCH  27  28
ATOM     28  CB  HIS A  38     -11.810   4.840   2.881  1.00 15.47     0.095 C 
BRANCH  28  29
ATOM     29  CG  HIS A  38     -13.012   3.964   2.729  1.00 18.62     0.053 A 
ATOM     30  CD2 HIS A  38     -14.172   4.156   2.057  1.00 15.06     0.116 A 
ATOM     31  NE2 HIS A  38     -14.924   3.021   2.221  1.00 18.12    -0.359 N 
ATOM     32  CE1 HIS A  38     -14.253   2.164   2.967  1.00 14.78     0.207 A 
ATOM     33  H06 HIS A  38     -15.843   2.866   1.834  1.00 18.12     0.166 HD
ATOM     34  ND1 HIS A  38     -13.096   2.708   3.288  1.00 16.58    -0.247 NA
ENDBRANCH  28  29
ENDBRANCH  27  28
END_RES HIS A  38
BEGIN_RES TRP A  63
REMARK  2 active torsions:
REMARK  status: ('A' for Active; 'I' for Inactive)
REMARK   14  A    between atoms: CA   and  CB  
REMARK   15  A    between atoms: CB   and  CG  
ROOT
ATOM     35  CA  TRP A  63     -22.437   6.257   6.543  1.00 27.04     0.181 C 
ENDROOT
BRANCH  35  36
ATOM     36  CB  TRP A  63     -22.360   6.642   5.068  1.00 31.37     0.075 C 
BRANCH  36  37
ATOM     37  CG  TRP A  63     -20.955   6.710   4.508  1.00 34.37    -0.028 A 
ATOM     38  CD2 TRP A  63     -19.913   5.736   4.658  1.00 33.79    -0.002 A 
ATOM     39  CE3 TRP A  63     -19.804   4.527   5.349  1.00 32.99     0.014 A 
ATOM     40  CE2 TRP A  63     -18.806   6.190   3.908  1.00 35.84     0.042 A 
ATOM     41  CZ3 TRP A  63     -18.614   3.819   5.273  1.00 32.93     0.001 A 
ATOM     42  CH2 TRP A  63     -17.530   4.297   4.519  1.00 39.24     0.002 A 
ATOM     43  CZ2 TRP A  63     -17.608   5.478   3.830  1.00 37.99     0.030 A 
ATOM     44  NE1 TRP A  63     -19.162   7.380   3.335  1.00 37.98    -0.365 N 
ATOM     45  H06 TRP A  63     -18.574   7.944   2.739  1.00 37.98     0.165 HD
ATOM     46  CD1 TRP A  63     -20.451   7.683   3.703  1.00 38.16     0.096 A 
ENDBRANCH  36  37
ENDBRANCH  35  36
END_RES TRP A  63
BEGIN_RES LEU A  66
REMARK  2 active torsions:
REMARK  status: ('A' for Active; 'I' for Inactive)
REMARK   16  A    between atoms: CA   and  CB  
REMARK   17  A    between atoms: CB   and  CG  
ROOT
ATOM     47  CA  LEU A  66     -20.004   6.489  11.120  1.00 10.90     0.177 C 
ENDROOT
BRANCH  47  48
ATOM     48  CB  LEU A  66     -19.626   5.453  10.069  1.00 13.57     0.038 C 
BRANCH  48  49
ATOM     49  CG  LEU A  66     -20.092   4.017  10.303  1.00  8.73    -0.020 C 
ATOM     50  CD1 LEU A  66     -19.281   3.054   9.476  1.00 14.23     0.009 C 
ATOM     51  CD2 LEU A  66     -19.937   3.697  11.768  1.00  1.92     0.009 C 
ENDBRANCH  48  49
ENDBRANCH  47  48
END_RES LEU A  66
BEGIN_RES PHE A  70
REMARK  2 active torsions:
REMARK  status: ('A' for Active; 'I' for Inactive)
REMARK   18  A    between atoms: CA   and  CB  
REMARK   19  A    between atoms: CB   and  CG  
ROOT
ATOM     52  CA  PHE A  70     -14.974   9.434  13.165  1.00  8.78     0.180 C 
ENDROOT
BRANCH  52  53
ATOM     53  CB  PHE A  70     -14.707   9.132  11.681  1.00  6.33     0.073 C 
BRANCH  53  54
ATOM     54  CG  PHE A  70     -13.951   7.850  11.458  1.00  3.42    -0.056 A 
ATOM     55  CD1 PHE A  70     -13.537   7.069  12.526  1.00 13.88     0.007 A 
ATOM     56  CE1 PHE A  70     -12.790   5.897  12.312  1.00 12.71     0.001 A 
ATOM     57  CZ  PHE A  70     -12.457   5.503  11.015  1.00  4.21     0.000 A 
ATOM     58  CE2 PHE A  70     -12.867   6.273   9.942  1.00  2.83     0.001 A 
ATOM     59  CD2 PHE A  70     -13.613   7.443  10.167  1.00  1.00     0.007 A 
ENDBRANCH  53  54
ENDBRANCH  52  53
END_RES PHE A  70
BEGIN_RES TYR A  73
REMARK  3 active torsions:
REMARK  status: ('A' for Active; 'I' for Inactive)
REMARK   20  A    between atoms: CA   and  CB  
REMARK   21  A    between atoms: CB   and  CG  
REMARK   22  A    between atoms: CZ   and  OH  
ROOT
ATOM     60  CA  TYR A  73     -13.212  10.166  17.260  1.00 12.17     0.180 C 
ENDROOT
BRANCH  60  61
ATOM     61  CB  TYR A  73     -13.301   8.846  16.517  1.00 12.84     0.073 C 
BRANCH  61  62
ATOM     62  CG  TYR A  73     -12.002   8.122  16.456  1.00 15.89    -0.056 A 
ATOM     63  CD1 TYR A  73     -11.461   7.535  17.579  1.00 16.00     0.010 A 
ATOM     64  CE1 TYR A  73     -10.230   6.882  17.531  1.00 13.55     0.037 A 
ATOM     65  CZ  TYR A  73      -9.540   6.826  16.336  1.00 18.13     0.065 A 
ATOM     66  CE2 TYR A  73     -10.058   7.404  15.200  1.00 15.89     0.037 A 
ATOM     67  CD2 TYR A  73     -11.287   8.048  15.266  1.00 21.86     0.010 A 
BRANCH  65  68
ATOM     68  OH  TYR A  73      -8.328   6.184  16.264  1.00 12.12    -0.361 OA
ATOM     69  H08 TYR A  73      -8.007   6.005  17.152  1.00 12.12     0.217 HD
ENDBRANCH  65  68
ENDBRANCH  61  62
ENDBRANCH  60  61
END_RES TYR A  73
BEGIN_RES PHE A  77
REMARK  2 active torsions:
REMARK  status: ('A' for Active; 'I' for Inactive)
REMARK   23  A    between atoms: CA   and  CB  
REMARK   24  A    between atoms: CB   and  CG  
ROOT
ATOM     70  CA  PHE A  77      -8.400  10.581  20.110  1.00 17.17     0.180 C 
ENDROOT
BRANCH  70  71
ATOM     71  CB  PHE A  77      -8.228   9.750  18.851  1.00 10.44     0.073 C 
BRANCH  71  72
ATOM     72  CG  PHE A  77      -7.098   8.771  18.924  1.00  6.07    -0.056 A 
ATOM     73  CD2 PHE A  77      -5.888   9.055  18.333  1.00  9.61     0.007 A 
ATOM     74  CE2 PHE A  77      -4.833   8.152  18.398  1.00  1.00     0.001 A 
ATOM     75  CZ  PHE A  77      -4.991   6.950  19.066  1.00  1.92     0.000 A 
ATOM     76  CE1 PHE A  77      -6.194   6.652  19.664  1.00  9.25     0.001 A 
ATOM     77  CD1 PHE A  77      -7.246   7.566  19.590  1.00  9.63     0.007 A 
ENDBRANCH  71  72
ENDBRANCH  70  71
END_RES PHE A  77
BEGIN_RES LEU A  96
REMARK  2 active torsions:
REMARK  status: ('A' for Active; 'I' for Inactive)
REMARK   25  A    between atoms: CA   and  CB  
REMARK   26  A    between atoms: CB   and  CG  
ROOT
ATOM     78  CA  LEU A  96       0.717   6.481  17.359  1.00 16.08     0.177 C 
ENDROOT
BRANCH  78  79
ATOM     79  CB  LEU A  96      -0.370   7.101  18.230  1.00 18.83     0.038 C 
BRANCH  79  80
ATOM     80  CG  LEU A  96      -0.181   6.884  19.731  1.00 19.03    -0.020 C 
ATOM     81  CD1 LEU A  96       0.380   5.499  19.957  1.00 28.17     0.009 C 
ATOM     82  CD2 LEU A  96       0.794   7.893  20.291  1.00 22.01     0.009 C 
ENDBRANCH  79  80
ENDBRANCH  78  79
END_RES LEU A  96
BEGIN_RES VAL A  98
REMARK  1 active torsions:
REMARK  status: ('A' for Active; 'I' for Inactive)
REMARK   27  A    between atoms: CA   and  CB  
ROOT
ATOM     83  CA  VAL A  98      -3.928   2.082  14.897  1.00 19.83     0.180 C 
ENDROOT
BRANCH  83  84
ATOM     84  CB  VAL A  98      -5.203   2.807  15.281  1.00 17.87     0.009 C 
ATOM     85  CG2 VAL A  98      -4.945   4.288  15.382  1.00 29.90     0.012 C 
ATOM     86  CG1 VAL A  98      -5.720   2.261  16.595  1.00 14.79     0.012 C 
ENDBRANCH  83  84
END_RES VAL A  98
BEGIN_RES ASN A 112
REMARK  2 active torsions:
REMARK  status: ('A' for Active; 'I' for Inactive)
REMARK   28  A    between atoms: CA   and  CB  
REMARK   29  A    between atoms: CB   and  CG  
REMARK       I    between atoms: CG   and  ND2 
ROOT
ATOM     87  CA  ASN A 112     -11.790  -8.793  14.069  1.00 37.70     0.185 C 
ENDROOT
BRANCH  87  88
ATOM     88  CB  ASN A 112     -12.992  -7.945  14.465  1.00 26.24     0.137 C 
BRANCH  88  89
ATOM     89  CG  ASN A 112     -13.800  -8.551  15.591  1.00 21.77     0.217 C 
ATOM     90  ND2 ASN A 112     -14.940  -9.146  15.242  1.00  9.31    -0.370 N 
ATOM     91  H04 ASN A 112     -15.526  -9.568  15.948  1.00  9.31     0.159 HD
ATOM     92  H05 ASN A 112     -15.219  -9.174  14.271  1.00  9.31     0.159 HD
ATOM     93  OD1 ASN A 112     -13.409  -8.483  16.762  1.00 21.61    -0.274 OA
ENDBRANCH  88  89
ENDBRANCH  87  88
END_RES ASN A 112
BEGIN_RES PHE A 114
REMARK  2 active torsions:
REMARK  status: ('A' for Active; 'I' for Inactive)
REMARK   30  A    between atoms: CA   and  CB  
REMARK   31  A    between atoms: CB   and  CG  
ROOT
ATOM     94  CA  PHE A 114      -7.754  -3.619  17.012  1.00 26.06     0.180 C 
ENDROOT
BRANCH  94  95
ATOM     95  CB  PHE A 114      -8.890  -3.080  17.867  1.00 19.95     0.073 C 
BRANCH  95  96
ATOM     96  CG  PHE A 114      -8.716  -1.645  18.246  1.00 17.65    -0.056 A 
ATOM     97  CD1 PHE A 114      -9.015  -1.207  19.533  1.00 13.01     0.007 A 
ATOM     98  CE1 PHE A 114      -8.882   0.132  19.878  1.00  6.74     0.001 A 
ATOM     99  CZ  PHE A 114      -8.442   1.055  18.934  1.00  6.27     0.000 A 
ATOM    100  CE2 PHE A 114      -8.141   0.630  17.650  1.00 17.36     0.001 A 
ATOM    101  CD2 PHE A 114      -8.278  -0.720  17.309  1.00 18.39     0.007 A 
ENDBRANCH  95  96
ENDBRANCH  94  95
END_RES PHE A 114
BEGIN_RES VAL A 116
REMARK  1 active torsions:
REMARK  status: ('A' for Active; 'I' for Inactive)
REMARK   32  A    between atoms: CA   and  CB  
ROOT
ATOM    102  CA  VAL A 116      -2.467   0.283  18.565  1.00 13.48     0.180 C 
ENDROOT
BRANCH 102 103
ATOM    103  CB  VAL A 116      -3.101   1.238  19.599  1.00 20.86     0.009 C 
ATOM    104  CG1 VAL A 116      -2.924   2.686  19.134  1.00 25.01     0.012 C 
ATOM    105  CG2 VAL A 116      -4.556   0.900  19.823  1.00 25.34     0.012 C 
ENDBRANCH 102 103
END_RES VAL A 116
BEGIN_RES ILE A 123
REMARK  2 active torsions:
REMARK  status: ('A' for Active; 'I' for Inactive)
REMARK   33  A    between atoms: CA   and  CB  
REMARK   34  A    between atoms: CB   and  CG1 
ROOT
ATOM    106  CA  ILE A 123       1.557  -1.626  23.222  1.00 15.07     0.180 C 
ENDROOT
BRANCH 106 107
ATOM    107  CB  ILE A 123       1.697  -0.112  23.461  1.00 14.41     0.013 C 
ATOM    108  CG2 ILE A 123       3.113   0.213  23.903  1.00 18.35     0.012 C 
BRANCH 107 109
ATOM    109  CG1 ILE A 123       1.350   0.660  22.190  1.00 15.23     0.002 C 
ATOM    110  CD1 ILE A 123       0.260   1.685  22.383  1.00 14.67     0.005 C 
ENDBRANCH 107 109
ENDBRANCH 106 107
END_RES ILE A 123
BEGIN_RES LEU A 124
REMARK  2 active torsions:
REMARK  status: ('A' for Active; 'I' for Inactive)
REMARK   35  A    between atoms: CA   and  CB  
REMARK   36  A    between atoms: CB   and  CG  
ROOT
ATOM    111  CA  LEU A 124      -2.057  -2.686  23.524  1.00 11.86     0.177 C 
ENDROOT
BRANCH 111 112
ATOM    112  CB  LEU A 124      -2.698  -1.652  24.429  1.00 14.60     0.038 C 
BRANCH 112 113
ATOM    113  CG  LEU A 124      -2.560  -0.242  23.873  1.00 16.19    -0.020 C 
ATOM    114  CD1 LEU A 124      -3.945   0.254  23.415  1.00 22.07     0.009 C 
ATOM    115  CD2 LEU A 124      -1.962   0.656  24.926  1.00  9.12     0.009 C 
ENDBRANCH 112 113
ENDBRANCH 111 112
END_RES LEU A 124
BEGIN_RES PHE A 126
REMARK  2 active torsions:
REMARK  status: ('A' for Active; 'I' for Inactive)
REMARK   37  A    between atoms: CA   and  CB  
REMARK   38  A    between atoms: CB   and  CG  
ROOT
ATOM    116  CA  PHE A 126      -8.784  -4.792  22.233  1.00 23.15     0.180 C 
ENDROOT
BRANCH 116 117
ATOM    117  CB  PHE A 126      -9.823  -4.011  21.461  1.00 20.65     0.073 C 
BRANCH 117 118
ATOM    118  CG  PHE A 126     -10.952  -3.548  22.295  1.00 23.65    -0.056 A 
ATOM    119  CD2 PHE A 126     -10.767  -2.563  23.250  1.00 36.63     0.007 A 
ATOM    120  CE2 PHE A 126     -11.839  -2.124  24.039  1.00 36.27     0.001 A 
ATOM    121  CZ  PHE A 126     -13.098  -2.679  23.866  1.00 18.06     0.000 A 
ATOM    122  CE1 PHE A 126     -13.287  -3.660  22.914  1.00  5.50     0.001 A 
ATOM    123  CD1 PHE A 126     -12.216  -4.089  22.131  1.00 15.29     0.007 A 
ENDBRANCH 117 118
ENDBRANCH 116 117
END_RES PHE A 126
BEGIN_RES TRP A 131
REMARK  2 active torsions:
REMARK  status: ('A' for Active; 'I' for Inactive)
REMARK   39  A    between atoms: CA   and  CB  
REMARK   40  A    between atoms: CB   and  CG  
ROOT
ATOM    124  CA  TRP A 131      -8.096  -3.335  26.542  1.00 14.52     0.181 C 
ENDROOT
BRANCH 124 125
ATOM    125  CB  TRP A 131      -7.651  -1.877  26.607  1.00 13.06     0.075 C 
BRANCH 125 126
ATOM    126  CG  TRP A 131      -7.985  -1.070  25.372  1.00 16.97    -0.028 A 
ATOM    127  CD2 TRP A 131      -9.062  -0.140  25.227  1.00 11.34    -0.002 A 
ATOM    128  CE2 TRP A 131      -8.996   0.384  23.922  1.00  5.87     0.042 A 
ATOM    129  CE3 TRP A 131     -10.080   0.299  26.081  1.00  3.80     0.014 A 
ATOM    130  CZ2 TRP A 131      -9.908   1.329  23.449  1.00  1.35     0.030 A 
ATOM    131  NE1 TRP A 131      -7.928  -0.200  23.297  1.00 13.90    -0.365 N 
ATOM    132  CH2 TRP A 131     -10.895   1.743  24.308  1.00  1.00     0.002 A 
ATOM    133  CZ3 TRP A 131     -10.988   1.234  25.617  1.00  1.00     0.001 A 
ATOM    134  CD1 TRP A 131      -7.325  -1.072  24.174  1.00 17.22     0.096 A 
ATOM    135  H07 TRP A 131      -7.631  -0.021  22.349  1.00 13.90     0.165 HD
ENDBRANCH 125 126
ENDBRANCH 124 125
END_RES TRP A 131
BEGIN_RES LEU A 148
REMARK  2 active torsions:
REMARK  status: ('A' for Active; 'I' for Inactive)
REMARK   41  A    between atoms: CA   and  CB  
REMARK   42  A    between atoms: CB   and  CG  
ROOT
ATOM    136  CA  LEU A 148      -9.018   3.259  29.295  1.00 16.99     0.177 C 
ENDROOT
BRANCH 136 137
ATOM    137  CB  LEU A 148      -8.166   2.574  28.236  1.00  6.39     0.038 C 
BRANCH 137 138
ATOM    138  CG  LEU A 148      -8.028   3.158  26.845  1.00  1.00    -0.020 C 
ATOM    139  CD2 LEU A 148      -6.804   2.612  26.170  1.00  1.00     0.009 C 
ATOM    140  CD1 LEU A 148      -7.938   4.668  26.970  1.00  2.71     0.009 C 
ENDBRANCH 137 138
ENDBRANCH 136 137
END_RES LEU A 148
BEGIN_RES THR A 154
REMARK  2 active torsions:
REMARK  status: ('A' for Active; 'I' for Inactive)
REMARK   43  A    between atoms: CA   and  CB  
REMARK   44  A    between atoms: CB   and  OG1 
ROOT
ATOM    141  CA  THR A 154     -15.990   3.959  24.426  1.00 20.45     0.205 C 
ENDROOT
BRANCH 141 142
ATOM    142  CB  THR A 154     -14.777   4.829  24.694  1.00 16.79     0.146 C 
ATOM    143  CG2 THR A 154     -13.578   4.306  23.927  1.00 20.24     0.042 C 
BRANCH 142 144
ATOM    144  OG1 THR A 154     -15.058   6.165  24.259  1.00 18.84    -0.393 OA
ATOM    145  H06 THR A 154     -15.342   6.150  23.342  1.00 18.84     0.210 HD
ENDBRANCH 142 144
ENDBRANCH 141 142
END_RES THR A 154
BEGIN_RES VAL A 158
REMARK  1 active torsions:
REMARK  status: ('A' for Active; 'I' for Inactive)
REMARK   45  A    between atoms: CA   and  CB  
ROOT
ATOM    146  CA  VAL A 158     -15.487  -0.189  19.892  1.00 15.49     0.180 C 
ENDROOT
BRANCH 146 147
ATOM    147  CB  VAL A 158     -14.291  -0.273  20.822  1.00  6.52     0.009 C 
ATOM    148  CG1 VAL A 158     -13.206  -1.140  20.227  1.00  1.00     0.012 C 
ATOM    149  CG2 VAL A 158     -13.782   1.112  21.076  1.00  5.99     0.012 C 
ENDBRANCH 146 147
END_RES VAL A 158
BEGIN_RES LEU A 161
REMARK  2 active torsions:
REMARK  status: ('A' for Active; 'I' for Inactive)
REMARK   46  A    between atoms: CA   and  CB  
REMARK   47  A    between atoms: CB   and  CG  
ROOT
ATOM    150  CA  LEU A 161     -18.031  -1.858  15.935  1.00 13.31     0.177 C 
ENDROOT
BRANCH 150 151
ATOM    151  CB  LEU A 161     -17.046  -0.706  16.001  1.00 14.13     0.038 C 
BRANCH 151 152
ATOM    152  CG  LEU A 161     -17.441   0.563  15.257  1.00 19.39    -0.020 C 
ATOM    153  CD2 LEU A 161     -16.811   1.770  15.910  1.00 27.75     0.009 C 
ATOM    154  CD1 LEU A 161     -18.941   0.692  15.276  1.00 18.59     0.009 C 
ENDBRANCH 151 152
ENDBRANCH 150 151
END_RES LEU A 161
BEGIN_RES GLN A 168
REMARK  3 active torsions:
REMARK  status: ('A' for Active; 'I' for Inactive)
REMARK   48  A    between atoms: CA   and  CB  
REMARK   49  A    between atoms: CB   and  CG  
REMARK   50  A    between atoms: CG   and  CD  
REMARK       I    between atoms: CD   and  NE2 
ROOT
ATOM    155  CA  GLN A 168     -22.035  -6.020   8.155  1.00 30.94     0.177 C 
ENDROOT
BRANCH 155 156
ATOM    156  CB  GLN A 168     -23.054  -5.218   8.946  1.00 41.76     0.044 C 
BRANCH 156 157
ATOM    157  CG  GLN A 168     -24.419  -5.847   9.024  1.00 61.20     0.105 C 
BRANCH 157 158
ATOM    158  CD  GLN A 168     -24.959  -5.851  10.440  1.00 75.49     0.215 C 
ATOM    159  NE2 GLN A 168     -24.052  -5.840  11.418  1.00 85.00    -0.370 N 
ATOM    160  H06 GLN A 168     -24.350  -5.845  12.384  1.00 85.00     0.159 HD
ATOM    161  H07 GLN A 168     -23.067  -5.828  11.193  1.00 85.00     0.159 HD
ATOM    162  OE1 GLN A 168     -26.179  -5.870  10.659  1.00 73.64    -0.274 OA
ENDBRANCH 157 158
ENDBRANCH 156 157
ENDBRANCH 155 156
END_RES GLN A 168
ENDMDL
MODEL 6
REMARK VINA RESULT:      -6.6      1.693      3.727
REMARK  Name = human_CD1d_Tween20_pred.rank_0
REMARK  75 active torsions:
REMARK  status: ('A' for Active; 'I' for Inactive)
REMARK    1  A    between atoms: C_1  and  C_3
REMARK    2  A    between atoms: C_3  and  O_4
REMARK    3  A    between atoms: O_4  and  C_5
REMARK    4  A    between atoms: C_5  and  C_7
REMARK    5  A    between atoms: O_6  and  C_7
REMARK    6  A    between atoms: O_6  and  C_9
REMARK    7  A    between atoms: O_8  and  C_11
REMARK    8  A    between atoms: O_8  and  C_13
REMARK    9  A    between atoms: C_9  and  C_11
REMARK   10  A    between atoms: O_10  and  C_15
REMARK   11  A    between atoms: O_10  and  C_17
REMARK   12  A    between atoms: O_12  and  C_19
REMARK   13  A    between atoms: O_12  and  C_21
REMARK   14  A    between atoms: C_13  and  C_15
REMARK   15  A    between atoms: O_14  and  C_23
REMARK   16  A    between atoms: O_14  and  C_25
REMARK   17  A    between atoms: O_16  and  C_27
REMARK   18  A    between atoms: O_16  and  C_29
REMARK   19  A    between atoms: C_17  and  C_19
REMARK   20  A    between atoms: O_18  and  C_31
REMARK   21  A    between atoms: O_18  and  C_33
REMARK   22  A    between atoms: O_20  and  C_35
REMARK   23  A    between atoms: O_20  and  C_37
REMARK   24  A    between atoms: C_21  and  C_23
REMARK   25  A    between atoms: C_21  and  C_61
REMARK   26  A    between atoms: O_22  and  C_39
REMARK   27  A    between atoms: O_22  and  C_41
REMARK   28  A    between atoms: O_24  and  C_43
REMARK   29  A    between atoms: O_24  and  C_45
REMARK   30  A    between atoms: C_25  and  C_27
REMARK   31  A    between atoms: O_28  and  C_63
REMARK   32  A    between atoms: O_28  and  C_64
REMARK   33  A    between atoms: C_29  and  C_31
REMARK   34  A    between atoms: O_30  and  C_65
REMARK   35  A    between atoms: O_30  and  C_66
REMARK   36  A    between atoms: O_32  and  C_67
REMARK   37  A    between atoms: O_32  and  C_68
REMARK   38  A    between atoms: C_33  and  C_35
REMARK   39  A    between atoms: O_34  and  C_69
REMARK   40  A    between atoms: O_34  and  C_70
REMARK   41  A    between atoms: O_36  and  C_71
REMARK   42  A    between atoms: O_36  and  C_72
REMARK   43  A    between atoms: C_37  and  C_39
REMARK   44  A    between atoms: O_40  and  C_74
REMARK   45  A    between atoms: O_40  and  C_75
REMARK   46  A    between atoms: C_41  and  C_43
REMARK   47  A    between atoms: O_42  and  C_76
REMARK   48  A    between atoms: O_42  and  C_77
REMARK   49  A    between atoms: O_44  and  C_78
REMARK   50  A    between atoms: O_44  and  C_79
REMARK   51  A    between atoms: C_45  and  C_47
REMARK   52  A    between atoms: O_46  and  C_80
REMARK   53  A    between atoms: O_46  and  C_81
REMARK   54  A    between atoms: C_47  and  C_49
REMARK   55  A    between atoms: O_48  and  C_82
REMARK   56  A    between atoms: O_48  and  C_83
REMARK   57  A    between atoms: C_49  and  C_51
REMARK   58  A    between atoms: C_51  and  C_53
REMARK   59  A    between atoms: C_53  and  C_54
REMARK   60  A    between atoms: C_54  and  C_55
REMARK   61  A    between atoms: C_55  and  C_56
REMARK   62  A    between atoms: C_56  and  C_57
REMARK   63  A    between atoms: C_57  and  C_58
REMARK   64  A    between atoms: C_58  and  C_59
REMARK   65  A    between atoms: C_61  and  C_62
REMARK   66  A    between atoms: C_64  and  C_65
REMARK   67  A    between atoms: C_66  and  C_67
REMARK   68  A    between atoms: C_68  and  C_69
REMARK   69  A    between atoms: C_70  and  C_71
REMARK   70  A    between atoms: C_72  and  C_73
REMARK   71  A    between atoms: C_75  and  C_76
REMARK   72  A    between atoms: C_77  and  C_78
REMARK   73  A    between atoms: C_79  and  C_80
REMARK   74  A    between atoms: C_81  and  C_82
REMARK   75  A    between atoms: C_83  and  C_84
REMARK                            x       y       z     vdW  Elec       q    Type
REMARK                         _______ _______ _______ _____ _____    ______ ____
ROOT
ATOM      1  C   UNL     1     -13.382   2.954  11.534  0.00  0.00    +0.000 C 
ENDROOT
BRANCH   1   2
ATOM      2  C   UNL     1     -12.513   2.849  12.849  0.00  0.00    +0.000 C 
BRANCH   2   4
ATOM      3  O   UNL     1     -11.729   4.406  14.641  0.00  0.00    +0.000 OA
ATOM      4  C   UNL     1     -12.916   3.914  13.828  0.00  0.00    +0.000 C 
ATOM      5  C   UNL     1     -13.786   3.252  14.899  0.00  0.00    +0.000 C 
ATOM      6  C   UNL     1     -12.914   3.437  16.142  0.00  0.00    +0.000 C 
ATOM      7  C   UNL     1     -12.025   4.629  15.925  0.00  0.00    +0.000 C 
BRANCH   6   8
ATOM      8  O   UNL     1     -12.233   2.194  16.311  0.00  0.00    +0.000 OA
BRANCH   8   9
ATOM      9  C   UNL     1     -11.132   2.243  17.199  0.00  0.00    +0.000 C 
BRANCH   9  10
ATOM     10  C   UNL     1     -11.644   2.220  18.606  0.00  0.00    +0.000 C 
BRANCH  10  11
ATOM     11  O   UNL     1     -11.233   3.386  19.279  0.00  0.00    +0.000 OA
BRANCH  11  12
ATOM     12  C   UNL     1     -10.678   3.107  20.547  0.00  0.00    +0.000 C 
BRANCH  12  13
ATOM     13  C   UNL     1     -11.223   4.112  21.540  0.00  0.00    +0.000 C 
BRANCH  13  14
ATOM     14  O   UNL     1     -10.470   5.277  21.515  0.00  0.00    +0.000 OA
BRANCH  14  15
ATOM     15  C   UNL     1     -10.516   6.012  22.673  0.00  0.00    +0.000 C 
BRANCH  15  16
ATOM     16  C   UNL     1     -11.140   7.344  22.398  0.00  0.00    +0.000 C 
BRANCH  16  17
ATOM     17  O   UNL     1     -12.511   7.348  22.750  0.00  0.00    +0.000 OA
BRANCH  17  18
ATOM     18  C   UNL     1     -12.994   8.666  22.959  0.00  0.00    +0.000 C 
BRANCH  18  19
ATOM     19  C   UNL     1     -14.288   8.876  22.209  0.00  0.00    +0.000 C 
BRANCH  19  20
ATOM     20  O   UNL     1     -14.759   7.639  21.740  0.00  0.00    +0.000 OA
BRANCH  20  21
ATOM     21  C   UNL     1     -16.000   7.817  21.075  0.00  0.00    +0.000 C 
BRANCH  21  23
ATOM     22  O   UNL     1     -16.139   9.339  19.200  0.00  0.00    +0.000 OA
ATOM     23  C   UNL     1     -16.151   9.239  20.676  0.00  0.00    +0.000 C 
ENDBRANCH  21  23
ENDBRANCH  20  21
ENDBRANCH  19  20
ENDBRANCH  18  19
ENDBRANCH  17  18
ENDBRANCH  16  17
ENDBRANCH  15  16
ENDBRANCH  14  15
ENDBRANCH  13  14
ENDBRANCH  12  13
ENDBRANCH  11  12
ENDBRANCH  10  11
ENDBRANCH   9  10
ENDBRANCH   8   9
ENDBRANCH   6   8
BRANCH   5  24
ATOM     24  O   UNL     1     -14.952   4.012  15.065  0.00  0.00    +0.000 OA
BRANCH  24  25
ATOM     25  C   UNL     1     -16.102   3.234  15.016  0.00  0.00    +0.000 C 
BRANCH  25  26
ATOM     26  C   UNL     1     -16.577   2.929  16.456  0.00  0.00    +0.000 C 
BRANCH  26  27
ATOM     27  O   UNL     1     -17.934   2.507  16.390  0.00  0.00    +0.000 OA
BRANCH  27  28
ATOM     28  C   UNL     1     -18.474   2.772  15.150  0.00  0.00    +0.000 C 
BRANCH  28  29
ATOM     29  C   UNL     1     -19.648   1.819  14.919  0.00  0.00    +0.000 C 
BRANCH  29  30
ATOM     30  O   UNL     1     -20.604   2.079  15.886  0.00  0.00    +0.000 OA
BRANCH  30  31
ATOM     31  C   UNL     1     -21.852   2.454  15.337  0.00  0.00    +0.000 C 
BRANCH  31  32
ATOM     32  C   UNL     1     -21.655   2.806  13.917  0.00  0.00    +0.000 C 
BRANCH  32  33
ATOM     33  O   UNL     1     -22.804   2.398  13.203  0.00  0.00    +0.000 OA
BRANCH  33  34
ATOM     34  C   UNL     1     -23.474   1.405  13.899  0.00  0.00    +0.000 C 
BRANCH  34  35
ATOM     35  C   UNL     1     -24.456   0.719  12.951  0.00  0.00    +0.000 C 
BRANCH  35  36
ATOM     36  O   UNL     1     -24.459  -0.671  13.241  0.00  0.00    +0.000 OA
BRANCH  36  37
ATOM     37  C   UNL     1     -24.391  -1.409  12.060  0.00  0.00    +0.000 C 
BRANCH  37  39
ATOM     38  O   UNL     1     -26.672  -1.671  11.500  0.00  0.00    +0.000 OA
ATOM     39  C   UNL     1     -25.492  -0.994  11.121  0.00  0.00    +0.000 C 
ENDBRANCH  37  39
ENDBRANCH  36  37
ENDBRANCH  35  36
ENDBRANCH  34  35
ENDBRANCH  33  34
ENDBRANCH  32  33
ENDBRANCH  31  32
ENDBRANCH  30  31
ENDBRANCH  29  30
ENDBRANCH  28  29
ENDBRANCH  27  28
ENDBRANCH  26  27
ENDBRANCH  25  26
ENDBRANCH  24  25
ENDBRANCH   5  24
ENDBRANCH   2   4
ENDBRANCH   1   2
BRANCH   1  40
ATOM     40  O   UNL     1     -14.028   1.719  11.209  0.00  0.00    +0.000 OA
BRANCH  40  41
ATOM     41  C   UNL     1     -13.477   0.563  11.800  0.00  0.00    +0.000 C 
BRANCH  41  42
ATOM     42  C   UNL     1     -13.688  -0.648  10.936  0.00  0.00    +0.000 C 
BRANCH  42  43
ATOM     43  O   UNL     1     -15.009  -1.056  10.945  0.00  0.00    +0.000 OA
BRANCH  43  44
ATOM     44  C   UNL     1     -15.676  -0.786   9.761  0.00  0.00    +0.000 C 
BRANCH  44  45
ATOM     45  C   UNL     1     -17.094  -0.407  10.047  0.00  0.00    +0.000 C 
BRANCH  45  46
ATOM     46  O   UNL     1     -17.516   0.647   9.289  0.00  0.00    +0.000 OA
BRANCH  46  47
ATOM     47  C   UNL     1     -16.449   1.490   8.854  0.00  0.00    +0.000 C 
BRANCH  47  48
ATOM     48  C   UNL     1     -16.993   2.555   7.975  0.00  0.00    +0.000 C 
BRANCH  48  49
ATOM     49  O   UNL     1     -16.084   2.781   6.932  0.00  0.00    +0.000 OA
BRANCH  49  50
ATOM     50  C   UNL     1     -14.792   3.085   7.432  0.00  0.00    +0.000 C 
BRANCH  50  51
ATOM     51  C   UNL     1     -14.206   4.150   6.600  0.00  0.00    +0.000 C 
BRANCH  51  52
ATOM     52  O   UNL     1     -12.836   3.926   6.532  0.00  0.00    +0.000 OA
BRANCH  52  53
ATOM     53  C   UNL     1     -12.085   5.055   6.966  0.00  0.00    +0.000 C 
BRANCH  53  54
ATOM     54  C   UNL     1     -10.692   5.069   6.373  0.00  0.00    +0.000 C 
ATOM     55  O   UNL     1      -9.862   5.963   7.109  0.00  0.00    +0.000 OA
ENDBRANCH  53  54
ENDBRANCH  52  53
ENDBRANCH  51  52
ENDBRANCH  50  51
ENDBRANCH  49  50
ENDBRANCH  48  49
ENDBRANCH  47  48
ENDBRANCH  46  47
ENDBRANCH  45  46
ENDBRANCH  44  45
ENDBRANCH  43  44
ENDBRANCH  42  43
ENDBRANCH  41  42
ENDBRANCH  40  41
ENDBRANCH   1  40
BRANCH   1  56
ATOM     56  C   UNL     1     -12.532   3.307  10.366  0.00  0.00    +0.000 C 
BRANCH  56  57
ATOM     57  O   UNL     1     -11.726   4.330  10.814  0.00  0.00    +0.000 OA
BRANCH  57  58
ATOM     58  C   UNL     1     -10.457   4.333  10.130  0.00  0.00    +0.000 C 
BRANCH  58  59
ATOM     59  C   UNL     1      -9.442   5.134  10.933  0.00  0.00    +0.000 C 
BRANCH  59  60
ATOM     60  O   UNL     1      -9.478   4.765  12.285  0.00  0.00    +0.000 OA
BRANCH  60  61
ATOM     61  C   UNL     1      -8.742   3.587  12.569  0.00  0.00    +0.000 C 
BRANCH  61  62
ATOM     62  C   UNL     1      -8.562   3.341  14.063  0.00  0.00    +0.000 C 
BRANCH  62  63
ATOM     63  O   UNL     1      -8.347   4.575  14.716  0.00  0.00    +0.000 OA
BRANCH  63  64
ATOM     64  C   UNL     1      -8.507   4.455  16.109  0.00  0.00    +0.000 C 
BRANCH  64  65
ATOM     65  C   UNL     1      -8.144   5.779  16.765  0.00  0.00    +0.000 C 
BRANCH  65  66
ATOM     66  O   UNL     1      -8.208   5.604  18.176  0.00  0.00    +0.000 OA
BRANCH  66  67
ATOM     67  C   UNL     1      -7.474   4.517  18.616  0.00  0.00    +0.000 C 
BRANCH  67  68
ATOM     68  C   UNL     1      -7.556   4.445  20.124  0.00  0.00    +0.000 C 
BRANCH  68  69
ATOM     69  O   UNL     1      -6.406   3.776  20.569  0.00  0.00    +0.000 OA
BRANCH  69  70
ATOM     70  C   UNL     1      -6.574   3.179  21.800  0.00  0.00    +0.000 C 
BRANCH  70  71
ATOM     71  C   UNL     1      -7.245   4.155  22.747  0.00  0.00    +0.000 C 
BRANCH  71  72
ATOM     72  O   UNL     1      -6.225   4.615  23.591  0.00  0.00    +0.000 OA
BRANCH  72  74
ATOM     73  O   UNL     1      -6.999   6.681  23.433  0.00  0.00    +0.000 OA
ATOM     74  C   UNL     1      -6.064   5.960  23.538  0.00  0.00    +0.000 C 
BRANCH  74  75
ATOM     75  C   UNL     1      -4.675   6.438  23.625  0.00  0.00    +0.000 C 
BRANCH  75  76
ATOM     76  C   UNL     1      -3.815   5.634  22.633  0.00  0.00    +0.000 C 
BRANCH  76  77
ATOM     77  C   UNL     1      -2.519   5.221  23.303  0.00  0.00    +0.000 C 
BRANCH  77  78
ATOM     78  C   UNL     1      -2.765   3.979  24.146  0.00  0.00    +0.000 C 
BRANCH  78  79
ATOM     79  C   UNL     1      -2.419   4.306  25.578  0.00  0.00    +0.000 C 
BRANCH  79  80
ATOM     80  C   UNL     1      -0.909   4.563  25.639  0.00  0.00    +0.000 C 
BRANCH  80  81
ATOM     81  C   UNL     1      -0.643   5.652  26.650  0.00  0.00    +0.000 C 
BRANCH  81  82
ATOM     82  C   UNL     1       0.416   6.602  26.097  0.00  0.00    +0.000 C 
BRANCH  82  83
ATOM     83  C   UNL     1       0.773   6.248  24.661  0.00  0.00    +0.000 C 
BRANCH  83  84
ATOM     84  C   UNL     1       0.465   7.364  23.708  0.00  0.00    +0.000 C 
ATOM     85  C   UNL     1      -0.622   8.253  24.234  0.00  0.00    +0.000 C 
ENDBRANCH  83  84
ENDBRANCH  82  83
ENDBRANCH  81  82
ENDBRANCH  80  81
ENDBRANCH  79  80
ENDBRANCH  78  79
ENDBRANCH  77  78
ENDBRANCH  76  77
ENDBRANCH  75  76
ENDBRANCH  74  75
ENDBRANCH  72  74
ENDBRANCH  71  72
ENDBRANCH  70  71
ENDBRANCH  69  70
ENDBRANCH  68  69
ENDBRANCH  67  68
ENDBRANCH  66  67
ENDBRANCH  65  66
ENDBRANCH  64  65
ENDBRANCH  63  64
ENDBRANCH  62  63
ENDBRANCH  61  62
ENDBRANCH  60  61
ENDBRANCH  59  60
ENDBRANCH  58  59
ENDBRANCH  57  58
ENDBRANCH  56  57
ENDBRANCH   1  56
TORSDOF 75
BEGIN_RES LEU A  10
REMARK  2 active torsions:
REMARK  status: ('A' for Active; 'I' for Inactive)
REMARK    1  A    between atoms: CA   and  CB  
REMARK    2  A    between atoms: CB   and  CG  
ROOT
ATOM      1  CA  LEU A  10     -10.775  -4.871   5.898  1.00 25.14     0.177 C 
ENDROOT
BRANCH   1   2
ATOM      2  CB  LEU A  10     -12.191  -4.387   6.226  1.00 17.87     0.038 C 
BRANCH   2   3
ATOM      3  CG  LEU A  10     -12.368  -2.868   6.176  1.00 24.95    -0.020 C 
ATOM      4  CD2 LEU A  10     -13.597  -2.496   6.935  1.00 26.38     0.009 C 
ATOM      5  CD1 LEU A  10     -12.457  -2.378   4.741  1.00 28.12     0.009 C 
ENDBRANCH   2   3
ENDBRANCH   1   2
END_RES LEU A  10
BEGIN_RES CYS A  12
REMARK  2 active torsions:
REMARK  status: ('A' for Active; 'I' for Inactive)
REMARK    3  A    between atoms: CA   and  CB  
REMARK    4  A    between atoms: CB   and  SG  
ROOT
ATOM      6  CA  CYS A  12      -8.555   0.470   8.750  1.00 23.16     0.185 C 
ENDROOT
BRANCH   6   7
ATOM      7  CB  CYS A  12      -9.828   0.763   9.555  1.00 20.43     0.105 C 
BRANCH   7   8
ATOM      8  SG  CYS A  12     -11.392   0.706   8.628  1.00 24.64    -0.180 SA
ATOM      9  H04 CYS A  12     -11.877   1.947   8.491  1.00 24.64     0.101 HD
ENDBRANCH   7   8
ENDBRANCH   6   7
END_RES CYS A  12
BEGIN_RES GLN A  14
REMARK  3 active torsions:
REMARK  status: ('A' for Active; 'I' for Inactive)
REMARK    5  A    between atoms: CA   and  CB  
REMARK    6  A    between atoms: CB   and  CG  
REMARK    7  A    between atoms: CG   and  CD  
REMARK       I    between atoms: CD   and  NE2 
ROOT
ATOM     10  CA  GLN A  14      -4.645   5.402  11.377  1.00 10.43     0.177 C 
ENDROOT
BRANCH  10  11
ATOM     11  CB  GLN A  14      -5.541   5.549  12.608  1.00 14.45     0.044 C 
BRANCH  11  12
ATOM     12  CG  GLN A  14      -6.507   6.709  12.533  1.00 13.74     0.105 C 
BRANCH  12  13
ATOM     13  CD  GLN A  14      -5.807   8.046  12.571  1.00 16.29     0.215 C 
ATOM     14  NE2 GLN A  14      -6.268   8.972  11.757  1.00  8.57    -0.370 N 
ATOM     15  H06 GLN A  14      -5.840   9.887  11.740  1.00  8.57     0.159 HD
ATOM     16  H07 GLN A  14      -7.049   8.768  11.151  1.00  8.57     0.159 HD
ATOM     17  OE1 GLN A  14      -4.867   8.244  13.324  1.00 23.55    -0.274 OA
ENDBRANCH  12  13
ENDBRANCH  11  12
ENDBRANCH  10  11
END_RES GLN A  14
BEGIN_RES SER A  16
REMARK  2 active torsions:
REMARK  status: ('A' for Active; 'I' for Inactive)
REMARK    8  A    between atoms: CA   and  CB  
REMARK    9  A    between atoms: CB   and  OG  
ROOT
ATOM     18  CA  SER A  16      -1.305  10.019  14.282  1.00  2.34     0.200 C 
ENDROOT
BRANCH  18  19
ATOM     19  CB  SER A  16      -2.242   9.935  15.479  1.00  3.12     0.199 C 
BRANCH  19  20
ATOM     20  OG  SER A  16      -2.201   8.638  16.047  1.00  1.00    -0.398 OA
ATOM     21  H04 SER A  16      -3.065   8.415  16.401  1.00  1.00     0.209 HD
ENDBRANCH  19  20
ENDBRANCH  18  19
END_RES SER A  16
BEGIN_RES LEU A  32
REMARK  2 active torsions:
REMARK  status: ('A' for Active; 'I' for Inactive)
REMARK   10  A    between atoms: CA   and  CB  
REMARK   11  A    between atoms: CB   and  CG  
ROOT
ATOM     22  CA  LEU A  32     -10.272  -4.106   1.587  1.00 16.16     0.177 C 
ENDROOT
BRANCH  22  23
ATOM     23  CB  LEU A  32     -11.613  -3.858   0.880  1.00 12.35     0.038 C 
BRANCH  23  24
ATOM     24  CG  LEU A  32     -12.582  -5.045   1.054  1.00  9.77    -0.020 C 
ATOM     25  CD1 LEU A  32     -13.323  -4.931   2.365  1.00  4.35     0.009 C 
ATOM     26  CD2 LEU A  32     -13.568  -5.105  -0.084  1.00 10.60     0.009 C 
ENDBRANCH  23  24
ENDBRANCH  22  23
END_RES LEU A  32
BEGIN_RES HIS A  38
REMARK  2 active torsions:
REMARK  status: ('A' for Active; 'I' for Inactive)
REMARK   12  A    between atoms: CA   and  CB  
REMARK   13  A    between atoms: CB   and  CG  
ROOT
ATOM     27  CA  HIS A  38     -10.959   4.941   1.621  1.00 16.94     0.182 C 
ENDROOT
BRANCH  27  28
ATOM     28  CB  HIS A  38     -11.810   4.840   2.881  1.00 15.47     0.095 C 
BRANCH  28  29
ATOM     29  CG  HIS A  38     -12.965   3.900   2.755  1.00 18.62     0.053 A 
ATOM     30  CD2 HIS A  38     -14.124   4.004   2.061  1.00 15.06     0.116 A 
ATOM     31  NE2 HIS A  38     -14.822   2.842   2.268  1.00 18.12    -0.359 N 
ATOM     32  CE1 HIS A  38     -14.121   2.054   3.060  1.00 14.78     0.207 A 
ATOM     33  H06 HIS A  38     -15.728   2.626   1.878  1.00 18.12     0.166 HD
ATOM     34  ND1 HIS A  38     -12.997   2.668   3.370  1.00 16.58    -0.247 NA
ENDBRANCH  28  29
ENDBRANCH  27  28
END_RES HIS A  38
BEGIN_RES TRP A  63
REMARK  2 active torsions:
REMARK  status: ('A' for Active; 'I' for Inactive)
REMARK   14  A    between atoms: CA   and  CB  
REMARK   15  A    between atoms: CB   and  CG  
ROOT
ATOM     35  CA  TRP A  63     -22.437   6.257   6.543  1.00 27.04     0.181 C 
ENDROOT
BRANCH  35  36
ATOM     36  CB  TRP A  63     -22.360   6.642   5.068  1.00 31.37     0.075 C 
BRANCH  36  37
ATOM     37  CG  TRP A  63     -20.954   6.845   4.543  1.00 34.37    -0.028 A 
ATOM     38  CD2 TRP A  63     -19.885   5.889   4.535  1.00 33.79    -0.002 A 
ATOM     39  CE3 TRP A  63     -19.744   4.583   5.008  1.00 32.99     0.014 A 
ATOM     40  CE2 TRP A  63     -18.787   6.497   3.886  1.00 35.84     0.042 A 
ATOM     41  CZ3 TRP A  63     -18.533   3.933   4.824  1.00 32.93     0.001 A 
ATOM     42  CH2 TRP A  63     -17.459   4.565   4.175  1.00 39.24     0.002 A 
ATOM     43  CZ2 TRP A  63     -17.568   5.844   3.699  1.00 37.99     0.030 A 
ATOM     44  NE1 TRP A  63     -19.176   7.758   3.523  1.00 37.98    -0.365 N 
ATOM     45  H06 TRP A  63     -18.601   8.432   3.039  1.00 37.98     0.165 HD
ATOM     46  CD1 TRP A  63     -20.475   7.956   3.923  1.00 38.16     0.096 A 
ENDBRANCH  36  37
ENDBRANCH  35  36
END_RES TRP A  63
BEGIN_RES LEU A  66
REMARK  2 active torsions:
REMARK  status: ('A' for Active; 'I' for Inactive)
REMARK   16  A    between atoms: CA   and  CB  
REMARK   17  A    between atoms: CB   and  CG  
ROOT
ATOM     47  CA  LEU A  66     -20.004   6.489  11.120  1.00 10.90     0.177 C 
ENDROOT
BRANCH  47  48
ATOM     48  CB  LEU A  66     -19.626   5.453  10.069  1.00 13.57     0.038 C 
BRANCH  48  49
ATOM     49  CG  LEU A  66     -19.348   4.032  10.556  1.00  8.73    -0.020 C 
ATOM     50  CD1 LEU A  66     -19.028   4.028  12.028  1.00 14.23     0.009 C 
ATOM     51  CD2 LEU A  66     -20.569   3.188  10.291  1.00  1.92     0.009 C 
ENDBRANCH  48  49
ENDBRANCH  47  48
END_RES LEU A  66
BEGIN_RES PHE A  70
REMARK  2 active torsions:
REMARK  status: ('A' for Active; 'I' for Inactive)
REMARK   18  A    between atoms: CA   and  CB  
REMARK   19  A    between atoms: CB   and  CG  
ROOT
ATOM     52  CA  PHE A  70     -14.974   9.434  13.165  1.00  8.78     0.180 C 
ENDROOT
BRANCH  52  53
ATOM     53  CB  PHE A  70     -14.707   9.132  11.681  1.00  6.33     0.073 C 
BRANCH  53  54
ATOM     54  CG  PHE A  70     -15.100   7.738  11.274  1.00  3.42    -0.056 A 
ATOM     55  CD1 PHE A  70     -15.455   7.448   9.965  1.00 13.88     0.007 A 
ATOM     56  CE1 PHE A  70     -15.866   6.153   9.602  1.00 12.71     0.001 A 
ATOM     57  CZ  PHE A  70     -15.921   5.140  10.559  1.00  4.21     0.000 A 
ATOM     58  CE2 PHE A  70     -15.567   5.416  11.867  1.00  2.83     0.001 A 
ATOM     59  CD2 PHE A  70     -15.157   6.713  12.220  1.00  1.00     0.007 A 
ENDBRANCH  53  54
ENDBRANCH  52  53
END_RES PHE A  70
BEGIN_RES TYR A  73
REMARK  3 active torsions:
REMARK  status: ('A' for Active; 'I' for Inactive)
REMARK   20  A    between atoms: CA   and  CB  
REMARK   21  A    between atoms: CB   and  CG  
REMARK   22  A    between atoms: CZ   and  OH  
ROOT
ATOM     60  CA  TYR A  73     -13.212  10.166  17.260  1.00 12.17     0.180 C 
ENDROOT
BRANCH  60  61
ATOM     61  CB  TYR A  73     -13.301   8.846  16.517  1.00 12.84     0.073 C 
BRANCH  61  62
ATOM     62  CG  TYR A  73     -13.533   7.684  17.418  1.00 15.89    -0.056 A 
ATOM     63  CD1 TYR A  73     -12.647   7.379  18.428  1.00 16.00     0.010 A 
ATOM     64  CE1 TYR A  73     -12.846   6.273  19.253  1.00 13.55     0.037 A 
ATOM     65  CZ  TYR A  73     -13.950   5.469  19.053  1.00 18.13     0.065 A 
ATOM     66  CE2 TYR A  73     -14.851   5.752  18.053  1.00 15.89     0.037 A 
ATOM     67  CD2 TYR A  73     -14.637   6.859  17.240  1.00 21.86     0.010 A 
BRANCH  65  68
ATOM     68  OH  TYR A  73     -14.169   4.378  19.858  1.00 12.12    -0.361 OA
ATOM     69  H08 TYR A  73     -14.133   4.647  20.779  1.00 12.12     0.217 HD
ENDBRANCH  65  68
ENDBRANCH  61  62
ENDBRANCH  60  61
END_RES TYR A  73
BEGIN_RES PHE A  77
REMARK  2 active torsions:
REMARK  status: ('A' for Active; 'I' for Inactive)
REMARK   23  A    between atoms: CA   and  CB  
REMARK   24  A    between atoms: CB   and  CG  
ROOT
ATOM     70  CA  PHE A  77      -8.400  10.581  20.110  1.00 17.17     0.180 C 
ENDROOT
BRANCH  70  71
ATOM     71  CB  PHE A  77      -8.228   9.750  18.851  1.00 10.44     0.073 C 
BRANCH  71  72
ATOM     72  CG  PHE A  77      -7.026   8.859  18.876  1.00  6.07    -0.056 A 
ATOM     73  CD2 PHE A  77      -6.739   8.102  19.989  1.00  9.61     0.007 A 
ATOM     74  CE2 PHE A  77      -5.626   7.270  20.020  1.00  1.00     0.001 A 
ATOM     75  CZ  PHE A  77      -4.788   7.195  18.920  1.00  1.92     0.000 A 
ATOM     76  CE1 PHE A  77      -5.061   7.945  17.799  1.00  9.25     0.001 A 
ATOM     77  CD1 PHE A  77      -6.181   8.777  17.781  1.00  9.63     0.007 A 
ENDBRANCH  71  72
ENDBRANCH  70  71
END_RES PHE A  77
BEGIN_RES LEU A  96
REMARK  2 active torsions:
REMARK  status: ('A' for Active; 'I' for Inactive)
REMARK   25  A    between atoms: CA   and  CB  
REMARK   26  A    between atoms: CB   and  CG  
ROOT
ATOM     78  CA  LEU A  96       0.717   6.481  17.359  1.00 16.08     0.177 C 
ENDROOT
BRANCH  78  79
ATOM     79  CB  LEU A  96      -0.370   7.101  18.230  1.00 18.83     0.038 C 
BRANCH  79  80
ATOM     80  CG  LEU A  96      -0.156   6.925  19.733  1.00 19.03    -0.020 C 
ATOM     81  CD1 LEU A  96      -1.340   7.512  20.466  1.00 28.17     0.009 C 
ATOM     82  CD2 LEU A  96      -0.054   5.459  20.084  1.00 22.01     0.009 C 
ENDBRANCH  79  80
ENDBRANCH  78  79
END_RES LEU A  96
BEGIN_RES VAL A  98
REMARK  1 active torsions:
REMARK  status: ('A' for Active; 'I' for Inactive)
REMARK   27  A    between atoms: CA   and  CB  
ROOT
ATOM     83  CA  VAL A  98      -3.928   2.082  14.897  1.00 19.83     0.180 C 
ENDROOT
BRANCH  83  84
ATOM     84  CB  VAL A  98      -5.203   2.807  15.281  1.00 17.87     0.009 C 
ATOM     85  CG2 VAL A  98      -4.892   4.228  15.673  1.00 29.90     0.012 C 
ATOM     86  CG1 VAL A  98      -5.881   2.072  16.418  1.00 14.79     0.012 C 
ENDBRANCH  83  84
END_RES VAL A  98
BEGIN_RES ASN A 112
REMARK  2 active torsions:
REMARK  status: ('A' for Active; 'I' for Inactive)
REMARK   28  A    between atoms: CA   and  CB  
REMARK   29  A    between atoms: CB   and  CG  
REMARK       I    between atoms: CG   and  ND2 
ROOT
ATOM     87  CA  ASN A 112     -11.790  -8.793  14.069  1.00 37.70     0.185 C 
ENDROOT
BRANCH  87  88
ATOM     88  CB  ASN A 112     -12.992  -7.945  14.465  1.00 26.24     0.137 C 
BRANCH  88  89
ATOM     89  CG  ASN A 112     -13.813  -8.562  15.575  1.00 21.77     0.217 C 
ATOM     90  ND2 ASN A 112     -14.962  -9.131  15.209  1.00  9.31    -0.370 N 
ATOM     91  H04 ASN A 112     -15.557  -9.560  15.905  1.00  9.31     0.159 HD
ATOM     92  H05 ASN A 112     -15.237  -9.134  14.238  1.00  9.31     0.159 HD
ATOM     93  OD1 ASN A 112     -13.426  -8.526  16.749  1.00 21.61    -0.274 OA
ENDBRANCH  88  89
ENDBRANCH  87  88
END_RES ASN A 112
BEGIN_RES PHE A 114
REMARK  2 active torsions:
REMARK  status: ('A' for Active; 'I' for Inactive)
REMARK   30  A    between atoms: CA   and  CB  
REMARK   31  A    between atoms: CB   and  CG  
ROOT
ATOM     94  CA  PHE A 114      -7.754  -3.619  17.012  1.00 26.06     0.180 C 
ENDROOT
BRANCH  94  95
ATOM     95  CB  PHE A 114      -8.890  -3.080  17.867  1.00 19.95     0.073 C 
BRANCH  95  96
ATOM     96  CG  PHE A 114      -8.677  -1.670  18.315  1.00 17.65    -0.056 A 
ATOM     97  CD1 PHE A 114      -8.304  -0.683  17.407  1.00 13.01     0.007 A 
ATOM     98  CE1 PHE A 114      -8.077   0.621  17.828  1.00  6.74     0.001 A 
ATOM     99  CZ  PHE A 114      -8.224   0.957  19.171  1.00  6.27     0.000 A 
ATOM    100  CE2 PHE A 114      -8.596  -0.018  20.083  1.00 17.36     0.001 A 
ATOM    101  CD2 PHE A 114      -8.821  -1.330  19.653  1.00 18.39     0.007 A 
ENDBRANCH  95  96
ENDBRANCH  94  95
END_RES PHE A 114
BEGIN_RES VAL A 116
REMARK  1 active torsions:
REMARK  status: ('A' for Active; 'I' for Inactive)
REMARK   32  A    between atoms: CA   and  CB  
ROOT
ATOM    102  CA  VAL A 116      -2.467   0.283  18.565  1.00 13.48     0.180 C 
ENDROOT
BRANCH 102 103
ATOM    103  CB  VAL A 116      -3.101   1.238  19.599  1.00 20.86     0.009 C 
ATOM    104  CG1 VAL A 116      -3.063   2.672  19.062  1.00 25.01     0.012 C 
ATOM    105  CG2 VAL A 116      -4.509   0.808  19.937  1.00 25.34     0.012 C 
ENDBRANCH 102 103
END_RES VAL A 116
BEGIN_RES ILE A 123
REMARK  2 active torsions:
REMARK  status: ('A' for Active; 'I' for Inactive)
REMARK   33  A    between atoms: CA   and  CB  
REMARK   34  A    between atoms: CB   and  CG1 
ROOT
ATOM    106  CA  ILE A 123       1.557  -1.626  23.222  1.00 15.07     0.180 C 
ENDROOT
BRANCH 106 107
ATOM    107  CB  ILE A 123       1.697  -0.112  23.461  1.00 14.41     0.013 C 
ATOM    108  CG2 ILE A 123       3.117   0.215  23.888  1.00 18.35     0.012 C 
BRANCH 107 109
ATOM    109  CG1 ILE A 123       1.336   0.660  22.195  1.00 15.23     0.002 C 
ATOM    110  CD1 ILE A 123       0.253   1.691  22.402  1.00 14.67     0.005 C 
ENDBRANCH 107 109
ENDBRANCH 106 107
END_RES ILE A 123
BEGIN_RES LEU A 124
REMARK  2 active torsions:
REMARK  status: ('A' for Active; 'I' for Inactive)
REMARK   35  A    between atoms: CA   and  CB  
REMARK   36  A    between atoms: CB   and  CG  
ROOT
ATOM    111  CA  LEU A 124      -2.057  -2.686  23.524  1.00 11.86     0.177 C 
ENDROOT
BRANCH 111 112
ATOM    112  CB  LEU A 124      -2.698  -1.652  24.429  1.00 14.60     0.038 C 
BRANCH 112 113
ATOM    113  CG  LEU A 124      -2.542  -0.240  23.884  1.00 16.19    -0.020 C 
ATOM    114  CD1 LEU A 124      -3.923   0.285  23.448  1.00 22.07     0.009 C 
ATOM    115  CD2 LEU A 124      -1.914   0.638  24.937  1.00  9.12     0.009 C 
ENDBRANCH 112 113
ENDBRANCH 111 112
END_RES LEU A 124
BEGIN_RES PHE A 126
REMARK  2 active torsions:
REMARK  status: ('A' for Active; 'I' for Inactive)
REMARK   37  A    between atoms: CA   and  CB  
REMARK   38  A    between atoms: CB   and  CG  
ROOT
ATOM    116  CA  PHE A 126      -8.784  -4.792  22.233  1.00 23.15     0.180 C 
ENDROOT
BRANCH 116 117
ATOM    117  CB  PHE A 126      -9.823  -4.011  21.461  1.00 20.65     0.073 C 
BRANCH 117 118
ATOM    118  CG  PHE A 126     -10.945  -3.534  22.298  1.00 23.65    -0.056 A 
ATOM    119  CD2 PHE A 126     -12.216  -4.056  22.138  1.00 36.63     0.007 A 
ATOM    120  CE2 PHE A 126     -13.278  -3.604  22.934  1.00 36.27     0.001 A 
ATOM    121  CZ  PHE A 126     -13.058  -2.625  23.891  1.00 18.06     0.000 A 
ATOM    122  CE1 PHE A 126     -11.790  -2.104  24.055  1.00  5.50     0.001 A 
ATOM    123  CD1 PHE A 126     -10.738  -2.562  23.261  1.00 15.29     0.007 A 
ENDBRANCH 117 118
ENDBRANCH 116 117
END_RES PHE A 126
BEGIN_RES TRP A 131
REMARK  2 active torsions:
REMARK  status: ('A' for Active; 'I' for Inactive)
REMARK   39  A    between atoms: CA   and  CB  
REMARK   40  A    between atoms: CB   and  CG  
ROOT
ATOM    124  CA  TRP A 131      -8.096  -3.335  26.542  1.00 14.52     0.181 C 
ENDROOT
BRANCH 124 125
ATOM    125  CB  TRP A 131      -7.651  -1.877  26.607  1.00 13.06     0.075 C 
BRANCH 125 126
ATOM    126  CG  TRP A 131      -8.036  -1.055  25.397  1.00 16.97    -0.028 A 
ATOM    127  CD2 TRP A 131      -9.116  -0.121  25.310  1.00 11.34    -0.002 A 
ATOM    128  CE2 TRP A 131      -9.106   0.417  24.009  1.00  5.87     0.042 A 
ATOM    129  CE3 TRP A 131     -10.094   0.311  26.213  1.00  3.80     0.014 A 
ATOM    130  CZ2 TRP A 131     -10.034   1.370  23.587  1.00  1.35     0.030 A 
ATOM    131  NE1 TRP A 131      -8.068  -0.163  23.332  1.00 13.90    -0.365 N 
ATOM    132  CH2 TRP A 131     -10.982   1.777  24.493  1.00  1.00     0.002 A 
ATOM    133  CZ3 TRP A 131     -11.018   1.253  25.799  1.00  1.00     0.001 A 
ATOM    134  CD1 TRP A 131      -7.429  -1.046  24.171  1.00 17.22     0.096 A 
ATOM    135  H07 TRP A 131      -7.812   0.026  22.373  1.00 13.90     0.165 HD
ENDBRANCH 125 126
ENDBRANCH 124 125
END_RES TRP A 131
BEGIN_RES LEU A 148
REMARK  2 active torsions:
REMARK  status: ('A' for Active; 'I' for Inactive)
REMARK   41  A    between atoms: CA   and  CB  
REMARK   42  A    between atoms: CB   and  CG  
ROOT
ATOM    136  CA  LEU A 148      -9.018   3.259  29.295  1.00 16.99     0.177 C 
ENDROOT
BRANCH 136 137
ATOM    137  CB  LEU A 148      -8.166   2.574  28.236  1.00  6.39     0.038 C 
BRANCH 137 138
ATOM    138  CG  LEU A 148      -7.522   3.367  27.117  1.00  1.00    -0.020 C 
ATOM    139  CD2 LEU A 148      -8.574   4.028  26.275  1.00  1.00     0.009 C 
ATOM    140  CD1 LEU A 148      -6.688   2.415  26.279  1.00  2.71     0.009 C 
ENDBRANCH 137 138
ENDBRANCH 136 137
END_RES LEU A 148
BEGIN_RES THR A 154
REMARK  2 active torsions:
REMARK  status: ('A' for Active; 'I' for Inactive)
REMARK   43  A    between atoms: CA   and  CB  
REMARK   44  A    between atoms: CB   and  OG1 
ROOT
ATOM    141  CA  THR A 154     -15.990   3.959  24.426  1.00 20.45     0.205 C 
ENDROOT
BRANCH 141 142
ATOM    142  CB  THR A 154     -14.777   4.829  24.694  1.00 16.79     0.146 C 
ATOM    143  CG2 THR A 154     -13.584   4.320  23.908  1.00 20.24     0.042 C 
BRANCH 142 144
ATOM    144  OG1 THR A 154     -15.066   6.170  24.279  1.00 18.84    -0.393 OA
ATOM    145  H06 THR A 154     -15.979   6.380  24.489  1.00 18.84     0.210 HD
ENDBRANCH 142 144
ENDBRANCH 141 142
END_RES THR A 154
BEGIN_RES VAL A 158
REMARK  1 active torsions:
REMARK  status: ('A' for Active; 'I' for Inactive)
REMARK   45  A    between atoms: CA   and  CB  
ROOT
ATOM    146  CA  VAL A 158     -15.487  -0.189  19.892  1.00 15.49     0.180 C 
ENDROOT
BRANCH 146 147
ATOM    147  CB  VAL A 158     -14.291  -0.273  20.822  1.00  6.52     0.009 C 
ATOM    148  CG1 VAL A 158     -13.185  -1.097  20.204  1.00  1.00     0.012 C 
ATOM    149  CG2 VAL A 158     -13.815   1.115  21.118  1.00  5.99     0.012 C 
ENDBRANCH 146 147
END_RES VAL A 158
BEGIN_RES LEU A 161
REMARK  2 active torsions:
REMARK  status: ('A' for Active; 'I' for Inactive)
REMARK   46  A    between atoms: CA   and  CB  
REMARK   47  A    between atoms: CB   and  CG  
ROOT
ATOM    150  CA  LEU A 161     -18.031  -1.858  15.935  1.00 13.31     0.177 C 
ENDROOT
BRANCH 150 151
ATOM    151  CB  LEU A 161     -17.046  -0.706  16.001  1.00 14.13     0.038 C 
BRANCH 151 152
ATOM    152  CG  LEU A 161     -15.953  -0.691  14.940  1.00 19.39    -0.020 C 
ATOM    153  CD2 LEU A 161     -14.662  -0.174  15.527  1.00 27.75     0.009 C 
ATOM    154  CD1 LEU A 161     -16.391   0.190  13.802  1.00 18.59     0.009 C 
ENDBRANCH 151 152
ENDBRANCH 150 151
END_RES LEU A 161
BEGIN_RES GLN A 168
REMARK  3 active torsions:
REMARK  status: ('A' for Active; 'I' for Inactive)
REMARK   48  A    between atoms: CA   and  CB  
REMARK   49  A    between atoms: CB   and  CG  
REMARK   50  A    between atoms: CG   and  CD  
REMARK       I    between atoms: CD   and  NE2 
ROOT
ATOM    155  CA  GLN A 168     -22.035  -6.020   8.155  1.00 30.94     0.177 C 
ENDROOT
BRANCH 155 156
ATOM    156  CB  GLN A 168     -23.054  -5.218   8.946  1.00 41.76     0.044 C 
BRANCH 156 157
ATOM    157  CG  GLN A 168     -24.428  -5.829   8.993  1.00 61.20     0.105 C 
BRANCH 157 158
ATOM    158  CD  GLN A 168     -24.834  -6.201  10.406  1.00 75.49     0.215 C 
ATOM    159  NE2 GLN A 168     -24.009  -5.809  11.379  1.00 85.00    -0.370 N 
ATOM    160  H06 GLN A 168     -24.223  -6.029  12.341  1.00 85.00     0.159 HD
ATOM    161  H07 GLN A 168     -23.170  -5.293  11.152  1.00 85.00     0.159 HD
ATOM    162  OE1 GLN A 168     -25.873  -6.838  10.626  1.00 73.64    -0.274 OA
ENDBRANCH 157 158
ENDBRANCH 156 157
ENDBRANCH 155 156
END_RES GLN A 168
ENDMDL
MODEL 7
REMARK VINA RESULT:      -6.6      1.467      3.621
REMARK  Name = human_CD1d_Tween20_pred.rank_0
REMARK  75 active torsions:
REMARK  status: ('A' for Active; 'I' for Inactive)
REMARK    1  A    between atoms: C_1  and  C_3
REMARK    2  A    between atoms: C_3  and  O_4
REMARK    3  A    between atoms: O_4  and  C_5
REMARK    4  A    between atoms: C_5  and  C_7
REMARK    5  A    between atoms: O_6  and  C_7
REMARK    6  A    between atoms: O_6  and  C_9
REMARK    7  A    between atoms: O_8  and  C_11
REMARK    8  A    between atoms: O_8  and  C_13
REMARK    9  A    between atoms: C_9  and  C_11
REMARK   10  A    between atoms: O_10  and  C_15
REMARK   11  A    between atoms: O_10  and  C_17
REMARK   12  A    between atoms: O_12  and  C_19
REMARK   13  A    between atoms: O_12  and  C_21
REMARK   14  A    between atoms: C_13  and  C_15
REMARK   15  A    between atoms: O_14  and  C_23
REMARK   16  A    between atoms: O_14  and  C_25
REMARK   17  A    between atoms: O_16  and  C_27
REMARK   18  A    between atoms: O_16  and  C_29
REMARK   19  A    between atoms: C_17  and  C_19
REMARK   20  A    between atoms: O_18  and  C_31
REMARK   21  A    between atoms: O_18  and  C_33
REMARK   22  A    between atoms: O_20  and  C_35
REMARK   23  A    between atoms: O_20  and  C_37
REMARK   24  A    between atoms: C_21  and  C_23
REMARK   25  A    between atoms: C_21  and  C_61
REMARK   26  A    between atoms: O_22  and  C_39
REMARK   27  A    between atoms: O_22  and  C_41
REMARK   28  A    between atoms: O_24  and  C_43
REMARK   29  A    between atoms: O_24  and  C_45
REMARK   30  A    between atoms: C_25  and  C_27
REMARK   31  A    between atoms: O_28  and  C_63
REMARK   32  A    between atoms: O_28  and  C_64
REMARK   33  A    between atoms: C_29  and  C_31
REMARK   34  A    between atoms: O_30  and  C_65
REMARK   35  A    between atoms: O_30  and  C_66
REMARK   36  A    between atoms: O_32  and  C_67
REMARK   37  A    between atoms: O_32  and  C_68
REMARK   38  A    between atoms: C_33  and  C_35
REMARK   39  A    between atoms: O_34  and  C_69
REMARK   40  A    between atoms: O_34  and  C_70
REMARK   41  A    between atoms: O_36  and  C_71
REMARK   42  A    between atoms: O_36  and  C_72
REMARK   43  A    between atoms: C_37  and  C_39
REMARK   44  A    between atoms: O_40  and  C_74
REMARK   45  A    between atoms: O_40  and  C_75
REMARK   46  A    between atoms: C_41  and  C_43
REMARK   47  A    between atoms: O_42  and  C_76
REMARK   48  A    between atoms: O_42  and  C_77
REMARK   49  A    between atoms: O_44  and  C_78
REMARK   50  A    between atoms: O_44  and  C_79
REMARK   51  A    between atoms: C_45  and  C_47
REMARK   52  A    between atoms: O_46  and  C_80
REMARK   53  A    between atoms: O_46  and  C_81
REMARK   54  A    between atoms: C_47  and  C_49
REMARK   55  A    between atoms: O_48  and  C_82
REMARK   56  A    between atoms: O_48  and  C_83
REMARK   57  A    between atoms: C_49  and  C_51
REMARK   58  A    between atoms: C_51  and  C_53
REMARK   59  A    between atoms: C_53  and  C_54
REMARK   60  A    between atoms: C_54  and  C_55
REMARK   61  A    between atoms: C_55  and  C_56
REMARK   62  A    between atoms: C_56  and  C_57
REMARK   63  A    between atoms: C_57  and  C_58
REMARK   64  A    between atoms: C_58  and  C_59
REMARK   65  A    between atoms: C_61  and  C_62
REMARK   66  A    between atoms: C_64  and  C_65
REMARK   67  A    between atoms: C_66  and  C_67
REMARK   68  A    between atoms: C_68  and  C_69
REMARK   69  A    between atoms: C_70  and  C_71
REMARK   70  A    between atoms: C_72  and  C_73
REMARK   71  A    between atoms: C_75  and  C_76
REMARK   72  A    between atoms: C_77  and  C_78
REMARK   73  A    between atoms: C_79  and  C_80
REMARK   74  A    between atoms: C_81  and  C_82
REMARK   75  A    between atoms: C_83  and  C_84
REMARK                            x       y       z     vdW  Elec       q    Type
REMARK                         _______ _______ _______ _____ _____    ______ ____
ROOT
ATOM      1  C   UNL     1     -12.296   1.042  12.970  0.00  0.00    +0.000 C 
ENDROOT
BRANCH   1   2
ATOM      2  C   UNL     1     -12.360   1.458  14.493  0.00  0.00    +0.000 C 
BRANCH   2   4
ATOM      3  O   UNL     1     -11.872   3.851  15.026  0.00  0.00    +0.000 OA
ATOM      4  C   UNL     1     -12.936   2.837  14.635  0.00  0.00    +0.000 C 
ATOM      5  C   UNL     1     -13.845   2.834  15.866  0.00  0.00    +0.000 C 
ATOM      6  C   UNL     1     -13.109   3.818  16.777  0.00  0.00    +0.000 C 
ATOM      7  C   UNL     1     -12.303   4.749  15.917  0.00  0.00    +0.000 C 
BRANCH   6   8
ATOM      8  O   UNL     1     -12.349   3.005  17.671  0.00  0.00    +0.000 OA
BRANCH   8   9
ATOM      9  C   UNL     1     -11.499   3.727  18.542  0.00  0.00    +0.000 C 
BRANCH   9  10
ATOM     10  C   UNL     1     -11.385   2.980  19.835  0.00  0.00    +0.000 C 
BRANCH  10  11
ATOM     11  O   UNL     1     -11.650   3.851  20.909  0.00  0.00    +0.000 OA
BRANCH  11  12
ATOM     12  C   UNL     1     -10.481   4.203  21.616  0.00  0.00    +0.000 C 
BRANCH  12  13
ATOM     13  C   UNL     1     -10.562   5.673  21.975  0.00  0.00    +0.000 C 
BRANCH  13  14
ATOM     14  O   UNL     1     -10.233   6.459  20.879  0.00  0.00    +0.000 OA
BRANCH  14  15
ATOM     15  C   UNL     1     -10.410   7.806  21.071  0.00  0.00    +0.000 C 
BRANCH  15  16
ATOM     16  C   UNL     1     -11.265   8.035  22.277  0.00  0.00    +0.000 C 
BRANCH  16  17
ATOM     17  O   UNL     1     -12.496   8.636  21.924  0.00  0.00    +0.000 OA
BRANCH  17  18
ATOM     18  C   UNL     1     -13.511   8.349  22.874  0.00  0.00    +0.000 C 
BRANCH  18  19
ATOM     19  C   UNL     1     -14.654   9.326  22.733  0.00  0.00    +0.000 C 
BRANCH  19  20
ATOM     20  O   UNL     1     -15.870   8.623  22.741  0.00  0.00    +0.000 OA
BRANCH  20  21
ATOM     21  C   UNL     1     -16.022   7.912  21.521  0.00  0.00    +0.000 C 
BRANCH  21  23
ATOM     22  O   UNL     1     -15.969   9.274  19.522  0.00  0.00    +0.000 OA
ATOM     23  C   UNL     1     -16.842   8.713  20.578  0.00  0.00    +0.000 C 
ENDBRANCH  21  23
ENDBRANCH  20  21
ENDBRANCH  19  20
ENDBRANCH  18  19
ENDBRANCH  17  18
ENDBRANCH  16  17
ENDBRANCH  15  16
ENDBRANCH  14  15
ENDBRANCH  13  14
ENDBRANCH  12  13
ENDBRANCH  11  12
ENDBRANCH  10  11
ENDBRANCH   9  10
ENDBRANCH   8   9
ENDBRANCH   6   8
BRANCH   5  24
ATOM     24  O   UNL     1     -15.079   3.400  15.516  0.00  0.00    +0.000 OA
BRANCH  24  25
ATOM     25  C   UNL     1     -15.232   3.526  14.142  0.00  0.00    +0.000 C 
BRANCH  25  26
ATOM     26  C   UNL     1     -16.739   3.547  13.793  0.00  0.00    +0.000 C 
BRANCH  26  27
ATOM     27  O   UNL     1     -17.445   2.913  14.853  0.00  0.00    +0.000 OA
BRANCH  27  28
ATOM     28  C   UNL     1     -18.572   2.274  14.383  0.00  0.00    +0.000 C 
BRANCH  28  29
ATOM     29  C   UNL     1     -19.483   1.963  15.571  0.00  0.00    +0.000 C 
BRANCH  29  30
ATOM     30  O   UNL     1     -20.726   1.610  15.074  0.00  0.00    +0.000 OA
BRANCH  30  31
ATOM     31  C   UNL     1     -21.780   2.350  15.658  0.00  0.00    +0.000 C 
BRANCH  31  32
ATOM     32  C   UNL     1     -22.864   2.488  14.666  0.00  0.00    +0.000 C 
BRANCH  32  33
ATOM     33  O   UNL     1     -22.902   1.305  13.895  0.00  0.00    +0.000 OA
BRANCH  33  34
ATOM     34  C   UNL     1     -23.297   1.590  12.597  0.00  0.00    +0.000 C 
BRANCH  34  35
ATOM     35  C   UNL     1     -24.379   0.593  12.184  0.00  0.00    +0.000 C 
BRANCH  35  36
ATOM     36  O   UNL     1     -23.966  -0.037  10.980  0.00  0.00    +0.000 OA
BRANCH  36  37
ATOM     37  C   UNL     1     -24.807  -1.110  10.687  0.00  0.00    +0.000 C 
BRANCH  37  39
ATOM     38  O   UNL     1     -25.237  -3.347  11.318  0.00  0.00    +0.000 OA
ATOM     39  C   UNL     1     -24.200  -2.399  11.175  0.00  0.00    +0.000 C 
ENDBRANCH  37  39
ENDBRANCH  36  37
ENDBRANCH  35  36
ENDBRANCH  34  35
ENDBRANCH  33  34
ENDBRANCH  32  33
ENDBRANCH  31  32
ENDBRANCH  30  31
ENDBRANCH  29  30
ENDBRANCH  28  29
ENDBRANCH  27  28
ENDBRANCH  26  27
ENDBRANCH  25  26
ENDBRANCH  24  25
ENDBRANCH   5  24
ENDBRANCH   2   4
ENDBRANCH   1   2
BRANCH   1  40
ATOM     40  O   UNL     1     -12.618  -0.337  12.768  0.00  0.00    +0.000 OA
BRANCH  40  41
ATOM     41  C   UNL     1     -12.313  -0.860  11.494  0.00  0.00    +0.000 C 
BRANCH  41  42
ATOM     42  C   UNL     1     -13.491  -1.582  10.902  0.00  0.00    +0.000 C 
BRANCH  42  43
ATOM     43  O   UNL     1     -14.136  -0.811   9.954  0.00  0.00    +0.000 OA
BRANCH  43  44
ATOM     44  C   UNL     1     -15.513  -0.790  10.107  0.00  0.00    +0.000 C 
BRANCH  44  45
ATOM     45  C   UNL     1     -15.995   0.621  10.219  0.00  0.00    +0.000 C 
BRANCH  45  46
ATOM     46  O   UNL     1     -15.100   1.430  10.856  0.00  0.00    +0.000 OA
BRANCH  46  47
ATOM     47  C   UNL     1     -15.135   2.780  10.396  0.00  0.00    +0.000 C 
BRANCH  47  48
ATOM     48  C   UNL     1     -14.944   2.802   8.924  0.00  0.00    +0.000 C 
BRANCH  48  49
ATOM     49  O   UNL     1     -15.411   4.027   8.430  0.00  0.00    +0.000 OA
BRANCH  49  50
ATOM     50  C   UNL     1     -14.922   4.276   7.122  0.00  0.00    +0.000 C 
BRANCH  50  51
ATOM     51  C   UNL     1     -13.503   3.882   7.070  0.00  0.00    +0.000 C 
BRANCH  51  52
ATOM     52  O   UNL     1     -12.763   5.016   6.760  0.00  0.00    +0.000 OA
BRANCH  52  53
ATOM     53  C   UNL     1     -11.394   4.713   6.508  0.00  0.00    +0.000 C 
BRANCH  53  54
ATOM     54  C   UNL     1     -10.507   5.929   6.668  0.00  0.00    +0.000 C 
ATOM     55  O   UNL     1      -9.898   6.251   5.421  0.00  0.00    +0.000 OA
ENDBRANCH  53  54
ENDBRANCH  52  53
ENDBRANCH  51  52
ENDBRANCH  50  51
ENDBRANCH  49  50
ENDBRANCH  48  49
ENDBRANCH  47  48
ENDBRANCH  46  47
ENDBRANCH  45  46
ENDBRANCH  44  45
ENDBRANCH  43  44
ENDBRANCH  42  43
ENDBRANCH  41  42
ENDBRANCH  40  41
ENDBRANCH   1  40
BRANCH   1  56
ATOM     56  C   UNL     1     -10.927   1.241  12.424  0.00  0.00    +0.000 C 
BRANCH  56  57
ATOM     57  O   UNL     1     -10.849   2.590  12.156  0.00  0.00    +0.000 OA
BRANCH  57  58
ATOM     58  C   UNL     1      -9.562   3.123  12.528  0.00  0.00    +0.000 C 
BRANCH  58  59
ATOM     59  C   UNL     1      -9.162   4.226  11.559  0.00  0.00    +0.000 C 
BRANCH  59  60
ATOM     60  O   UNL     1      -9.524   5.483  12.063  0.00  0.00    +0.000 OA
BRANCH  60  61
ATOM     61  C   UNL     1      -9.381   5.591  13.469  0.00  0.00    +0.000 C 
BRANCH  61  62
ATOM     62  C   UNL     1     -10.095   6.806  14.051  0.00  0.00    +0.000 C 
BRANCH  62  63
ATOM     63  O   UNL     1      -9.167   7.856  14.222  0.00  0.00    +0.000 OA
BRANCH  63  64
ATOM     64  C   UNL     1      -8.901   8.091  15.584  0.00  0.00    +0.000 C 
BRANCH  64  65
ATOM     65  C   UNL     1     -10.053   7.544  16.415  0.00  0.00    +0.000 C 
BRANCH  65  66
ATOM     66  O   UNL     1      -9.508   6.685  17.410  0.00  0.00    +0.000 OA
BRANCH  66  67
ATOM     67  C   UNL     1      -8.297   6.130  17.036  0.00  0.00    +0.000 C 
BRANCH  67  68
ATOM     68  C   UNL     1      -8.408   4.623  17.096  0.00  0.00    +0.000 C 
BRANCH  68  69
ATOM     69  O   UNL     1      -7.447   4.175  18.016  0.00  0.00    +0.000 OA
BRANCH  69  70
ATOM     70  C   UNL     1      -7.933   4.094  19.303  0.00  0.00    +0.000 C 
BRANCH  70  71
ATOM     71  C   UNL     1      -7.202   2.996  20.052  0.00  0.00    +0.000 C 
BRANCH  71  72
ATOM     72  O   UNL     1      -6.206   3.650  20.789  0.00  0.00    +0.000 OA
BRANCH  72  74
ATOM     73  O   UNL     1      -6.809   2.333  22.461  0.00  0.00    +0.000 OA
ATOM     74  C   UNL     1      -6.168   3.257  22.086  0.00  0.00    +0.000 C 
BRANCH  74  75
ATOM     75  C   UNL     1      -5.286   4.043  22.964  0.00  0.00    +0.000 C 
BRANCH  75  76
ATOM     76  C   UNL     1      -3.979   4.341  22.207  0.00  0.00    +0.000 C 
BRANCH  76  77
ATOM     77  C   UNL     1      -2.907   4.766  23.193  0.00  0.00    +0.000 C 
BRANCH  77  78
ATOM     78  C   UNL     1      -3.005   6.266  23.424  0.00  0.00    +0.000 C 
BRANCH  78  79
ATOM     79  C   UNL     1      -1.794   6.919  22.806  0.00  0.00    +0.000 C 
BRANCH  79  80
ATOM     80  C   UNL     1      -1.114   7.753  23.897  0.00  0.00    +0.000 C 
BRANCH  80  81
ATOM     81  C   UNL     1       0.373   7.496  23.848  0.00  0.00    +0.000 C 
BRANCH  81  82
ATOM     82  C   UNL     1       0.697   6.263  24.686  0.00  0.00    +0.000 C 
BRANCH  82  83
ATOM     83  C   UNL     1       0.018   6.331  26.046  0.00  0.00    +0.000 C 
BRANCH  83  84
ATOM     84  C   UNL     1      -0.831   5.126  26.319  0.00  0.00    +0.000 C 
ATOM     85  C   UNL     1      -0.395   3.949  25.498  0.00  0.00    +0.000 C 
ENDBRANCH  83  84
ENDBRANCH  82  83
ENDBRANCH  81  82
ENDBRANCH  80  81
ENDBRANCH  79  80
ENDBRANCH  78  79
ENDBRANCH  77  78
ENDBRANCH  76  77
ENDBRANCH  75  76
ENDBRANCH  74  75
ENDBRANCH  72  74
ENDBRANCH  71  72
ENDBRANCH  70  71
ENDBRANCH  69  70
ENDBRANCH  68  69
ENDBRANCH  67  68
ENDBRANCH  66  67
ENDBRANCH  65  66
ENDBRANCH  64  65
ENDBRANCH  63  64
ENDBRANCH  62  63
ENDBRANCH  61  62
ENDBRANCH  60  61
ENDBRANCH  59  60
ENDBRANCH  58  59
ENDBRANCH  57  58
ENDBRANCH  56  57
ENDBRANCH   1  56
TORSDOF 75
BEGIN_RES LEU A  10
REMARK  2 active torsions:
REMARK  status: ('A' for Active; 'I' for Inactive)
REMARK    1  A    between atoms: CA   and  CB  
REMARK    2  A    between atoms: CB   and  CG  
ROOT
ATOM      1  CA  LEU A  10     -10.775  -4.871   5.898  1.00 25.14     0.177 C 
ENDROOT
BRANCH   1   2
ATOM      2  CB  LEU A  10     -12.191  -4.387   6.226  1.00 17.87     0.038 C 
BRANCH   2   3
ATOM      3  CG  LEU A  10     -12.457  -2.923   5.871  1.00 24.95    -0.020 C 
ATOM      4  CD2 LEU A  10     -12.635  -2.142   7.129  1.00 26.38     0.009 C 
ATOM      5  CD1 LEU A  10     -13.683  -2.793   4.983  1.00 28.12     0.009 C 
ENDBRANCH   2   3
ENDBRANCH   1   2
END_RES LEU A  10
BEGIN_RES CYS A  12
REMARK  2 active torsions:
REMARK  status: ('A' for Active; 'I' for Inactive)
REMARK    3  A    between atoms: CA   and  CB  
REMARK    4  A    between atoms: CB   and  SG  
ROOT
ATOM      6  CA  CYS A  12      -8.555   0.470   8.750  1.00 23.16     0.185 C 
ENDROOT
BRANCH   6   7
ATOM      7  CB  CYS A  12      -9.828   0.763   9.555  1.00 20.43     0.105 C 
BRANCH   7   8
ATOM      8  SG  CYS A  12     -11.265   1.338   8.599  1.00 24.64    -0.180 SA
ATOM      9  H04 CYS A  12     -10.865   2.230   7.684  1.00 24.64     0.101 HD
ENDBRANCH   7   8
ENDBRANCH   6   7
END_RES CYS A  12
BEGIN_RES GLN A  14
REMARK  3 active torsions:
REMARK  status: ('A' for Active; 'I' for Inactive)
REMARK    5  A    between atoms: CA   and  CB  
REMARK    6  A    between atoms: CB   and  CG  
REMARK    7  A    between atoms: CG   and  CD  
REMARK       I    between atoms: CD   and  NE2 
ROOT
ATOM     10  CA  GLN A  14      -4.645   5.402  11.377  1.00 10.43     0.177 C 
ENDROOT
BRANCH  10  11
ATOM     11  CB  GLN A  14      -5.541   5.549  12.608  1.00 14.45     0.044 C 
BRANCH  11  12
ATOM     12  CG  GLN A  14      -6.446   6.759  12.572  1.00 13.74     0.105 C 
BRANCH  12  13
ATOM     13  CD  GLN A  14      -5.761   8.007  13.074  1.00 16.29     0.215 C 
ATOM     14  NE2 GLN A  14      -5.962   8.320  14.335  1.00  8.57    -0.370 N 
ATOM     15  H06 GLN A  14      -5.528   9.143  14.727  1.00  8.57     0.159 HD
ATOM     16  H07 GLN A  14      -6.550   7.735  14.913  1.00  8.57     0.159 HD
ATOM     17  OE1 GLN A  14      -5.057   8.680  12.336  1.00 23.55    -0.274 OA
ENDBRANCH  12  13
ENDBRANCH  11  12
ENDBRANCH  10  11
END_RES GLN A  14
BEGIN_RES SER A  16
REMARK  2 active torsions:
REMARK  status: ('A' for Active; 'I' for Inactive)
REMARK    8  A    between atoms: CA   and  CB  
REMARK    9  A    between atoms: CB   and  OG  
ROOT
ATOM     18  CA  SER A  16      -1.305  10.019  14.282  1.00  2.34     0.200 C 
ENDROOT
BRANCH  18  19
ATOM     19  CB  SER A  16      -2.242   9.935  15.479  1.00  3.12     0.199 C 
BRANCH  19  20
ATOM     20  OG  SER A  16      -3.455   9.301  15.112  1.00  1.00    -0.398 OA
ATOM     21  H04 SER A  16      -3.273   8.607  14.474  1.00  1.00     0.209 HD
ENDBRANCH  19  20
ENDBRANCH  18  19
END_RES SER A  16
BEGIN_RES LEU A  32
REMARK  2 active torsions:
REMARK  status: ('A' for Active; 'I' for Inactive)
REMARK   10  A    between atoms: CA   and  CB  
REMARK   11  A    between atoms: CB   and  CG  
ROOT
ATOM     22  CA  LEU A  32     -10.272  -4.106   1.587  1.00 16.16     0.177 C 
ENDROOT
BRANCH  22  23
ATOM     23  CB  LEU A  32     -11.613  -3.858   0.880  1.00 12.35     0.038 C 
BRANCH  23  24
ATOM     24  CG  LEU A  32     -12.538  -5.090   0.955  1.00  9.77    -0.020 C 
ATOM     25  CD1 LEU A  32     -13.081  -5.255   2.354  1.00  4.35     0.009 C 
ATOM     26  CD2 LEU A  32     -13.678  -4.965  -0.022  1.00 10.60     0.009 C 
ENDBRANCH  23  24
ENDBRANCH  22  23
END_RES LEU A  32
BEGIN_RES HIS A  38
REMARK  2 active torsions:
REMARK  status: ('A' for Active; 'I' for Inactive)
REMARK   12  A    between atoms: CA   and  CB  
REMARK   13  A    between atoms: CB   and  CG  
ROOT
ATOM     27  CA  HIS A  38     -10.959   4.941   1.621  1.00 16.94     0.182 C 
ENDROOT
BRANCH  27  28
ATOM     28  CB  HIS A  38     -11.810   4.840   2.881  1.00 15.47     0.095 C 
BRANCH  28  29
ATOM     29  CG  HIS A  38     -13.273   5.021   2.637  1.00 18.62     0.053 A 
ATOM     30  CD2 HIS A  38     -13.952   5.363   1.516  1.00 15.06     0.116 A 
ATOM     31  NE2 HIS A  38     -15.285   5.356   1.835  1.00 18.12    -0.359 N 
ATOM     32  CE1 HIS A  38     -15.423   5.024   3.105  1.00 14.78     0.207 A 
ATOM     33  H06 HIS A  38     -16.041   5.572   1.201  1.00 18.12     0.166 HD
ATOM     34  ND1 HIS A  38     -14.224   4.816   3.613  1.00 16.58    -0.247 NA
ENDBRANCH  28  29
ENDBRANCH  27  28
END_RES HIS A  38
BEGIN_RES TRP A  63
REMARK  2 active torsions:
REMARK  status: ('A' for Active; 'I' for Inactive)
REMARK   14  A    between atoms: CA   and  CB  
REMARK   15  A    between atoms: CB   and  CG  
ROOT
ATOM     35  CA  TRP A  63     -22.437   6.257   6.543  1.00 27.04     0.181 C 
ENDROOT
BRANCH  35  36
ATOM     36  CB  TRP A  63     -22.360   6.642   5.068  1.00 31.37     0.075 C 
BRANCH  36  37
ATOM     37  CG  TRP A  63     -20.973   6.557   4.467  1.00 34.37    -0.028 A 
ATOM     38  CD2 TRP A  63     -20.244   7.607   3.816  1.00 33.79    -0.002 A 
ATOM     39  CE3 TRP A  63     -20.536   8.931   3.481  1.00 32.99     0.014 A 
ATOM     40  CE2 TRP A  63     -18.973   7.088   3.484  1.00 35.84     0.042 A 
ATOM     41  CZ3 TRP A  63     -19.567   9.686   2.835  1.00 32.93     0.001 A 
ATOM     42  CH2 TRP A  63     -18.313   9.141   2.518  1.00 39.24     0.002 A 
ATOM     43  CZ2 TRP A  63     -17.997   7.847   2.835  1.00 37.99     0.030 A 
ATOM     44  NE1 TRP A  63     -18.938   5.790   3.913  1.00 37.98    -0.365 N 
ATOM     45  H06 TRP A  63     -18.154   5.160   3.815  1.00 37.98     0.165 HD
ATOM     46  CD1 TRP A  63     -20.142   5.482   4.499  1.00 38.16     0.096 A 
ENDBRANCH  36  37
ENDBRANCH  35  36
END_RES TRP A  63
BEGIN_RES LEU A  66
REMARK  2 active torsions:
REMARK  status: ('A' for Active; 'I' for Inactive)
REMARK   16  A    between atoms: CA   and  CB  
REMARK   17  A    between atoms: CB   and  CG  
ROOT
ATOM     47  CA  LEU A  66     -20.004   6.489  11.120  1.00 10.90     0.177 C 
ENDROOT
BRANCH  47  48
ATOM     48  CB  LEU A  66     -19.626   5.453  10.069  1.00 13.57     0.038 C 
BRANCH  48  49
ATOM     49  CG  LEU A  66     -19.994   3.998  10.357  1.00  8.73    -0.020 C 
ATOM     50  CD1 LEU A  66     -18.833   3.087  10.054  1.00 14.23     0.009 C 
ATOM     51  CD2 LEU A  66     -20.377   3.881  11.810  1.00  1.92     0.009 C 
ENDBRANCH  48  49
ENDBRANCH  47  48
END_RES LEU A  66
BEGIN_RES PHE A  70
REMARK  2 active torsions:
REMARK  status: ('A' for Active; 'I' for Inactive)
REMARK   18  A    between atoms: CA   and  CB  
REMARK   19  A    between atoms: CB   and  CG  
ROOT
ATOM     52  CA  PHE A  70     -14.974   9.434  13.165  1.00  8.78     0.180 C 
ENDROOT
BRANCH  52  53
ATOM     53  CB  PHE A  70     -14.707   9.132  11.681  1.00  6.33     0.073 C 
BRANCH  53  54
ATOM     54  CG  PHE A  70     -13.986   7.831  11.456  1.00  3.42    -0.056 A 
ATOM     55  CD1 PHE A  70     -13.669   7.401  10.176  1.00 13.88     0.007 A 
ATOM     56  CE1 PHE A  70     -13.038   6.162   9.969  1.00 12.71     0.001 A 
ATOM     57  CZ  PHE A  70     -12.719   5.347  11.056  1.00  4.21     0.000 A 
ATOM     58  CE2 PHE A  70     -13.028   5.766  12.337  1.00  2.83     0.001 A 
ATOM     59  CD2 PHE A  70     -13.659   7.006  12.533  1.00  1.00     0.007 A 
ENDBRANCH  53  54
ENDBRANCH  52  53
END_RES PHE A  70
BEGIN_RES TYR A  73
REMARK  3 active torsions:
REMARK  status: ('A' for Active; 'I' for Inactive)
REMARK   20  A    between atoms: CA   and  CB  
REMARK   21  A    between atoms: CB   and  CG  
REMARK   22  A    between atoms: CZ   and  OH  
ROOT
ATOM     60  CA  TYR A  73     -13.212  10.166  17.260  1.00 12.17     0.180 C 
ENDROOT
BRANCH  60  61
ATOM     61  CB  TYR A  73     -13.301   8.846  16.517  1.00 12.84     0.073 C 
BRANCH  61  62
ATOM     62  CG  TYR A  73     -13.722   7.714  17.387  1.00 15.89    -0.056 A 
ATOM     63  CD1 TYR A  73     -14.826   6.951  17.078  1.00 16.00     0.010 A 
ATOM     64  CE1 TYR A  73     -15.240   5.910  17.908  1.00 13.55     0.037 A 
ATOM     65  CZ  TYR A  73     -14.529   5.640  19.061  1.00 18.13     0.065 A 
ATOM     66  CE2 TYR A  73     -13.422   6.385  19.392  1.00 15.89     0.037 A 
ATOM     67  CD2 TYR A  73     -13.023   7.419  18.553  1.00 21.86     0.010 A 
BRANCH  65  68
ATOM     68  OH  TYR A  73     -14.915   4.615  19.889  1.00 12.12    -0.361 OA
ATOM     69  H08 TYR A  73     -15.694   4.186  19.527  1.00 12.12     0.217 HD
ENDBRANCH  65  68
ENDBRANCH  61  62
ENDBRANCH  60  61
END_RES TYR A  73
BEGIN_RES PHE A  77
REMARK  2 active torsions:
REMARK  status: ('A' for Active; 'I' for Inactive)
REMARK   23  A    between atoms: CA   and  CB  
REMARK   24  A    between atoms: CB   and  CG  
ROOT
ATOM     70  CA  PHE A  77      -8.400  10.581  20.110  1.00 17.17     0.180 C 
ENDROOT
BRANCH  70  71
ATOM     71  CB  PHE A  77      -8.228   9.750  18.851  1.00 10.44     0.073 C 
BRANCH  71  72
ATOM     72  CG  PHE A  77      -7.062   8.813  18.902  1.00  6.07    -0.056 A 
ATOM     73  CD2 PHE A  77      -6.954   7.885  19.912  1.00  9.61     0.007 A 
ATOM     74  CE2 PHE A  77      -5.876   7.009  19.966  1.00  1.00     0.001 A 
ATOM     75  CZ  PHE A  77      -4.893   7.063  18.992  1.00  1.92     0.000 A 
ATOM     76  CE1 PHE A  77      -4.987   7.984  17.974  1.00  9.25     0.001 A 
ATOM     77  CD1 PHE A  77      -6.073   8.858  17.933  1.00  9.63     0.007 A 
ENDBRANCH  71  72
ENDBRANCH  70  71
END_RES PHE A  77
BEGIN_RES LEU A  96
REMARK  2 active torsions:
REMARK  status: ('A' for Active; 'I' for Inactive)
REMARK   25  A    between atoms: CA   and  CB  
REMARK   26  A    between atoms: CB   and  CG  
ROOT
ATOM     78  CA  LEU A  96       0.717   6.481  17.359  1.00 16.08     0.177 C 
ENDROOT
BRANCH  78  79
ATOM     79  CB  LEU A  96      -0.370   7.101  18.230  1.00 18.83     0.038 C 
BRANCH  79  80
ATOM     80  CG  LEU A  96      -0.117   6.994  19.734  1.00 19.03    -0.020 C 
ATOM     81  CD1 LEU A  96       0.441   5.623  20.038  1.00 28.17     0.009 C 
ATOM     82  CD2 LEU A  96       0.892   8.030  20.173  1.00 22.01     0.009 C 
ENDBRANCH  79  80
ENDBRANCH  78  79
END_RES LEU A  96
BEGIN_RES VAL A  98
REMARK  1 active torsions:
REMARK  status: ('A' for Active; 'I' for Inactive)
REMARK   27  A    between atoms: CA   and  CB  
ROOT
ATOM     83  CA  VAL A  98      -3.928   2.082  14.897  1.00 19.83     0.180 C 
ENDROOT
BRANCH  83  84
ATOM     84  CB  VAL A  98      -5.203   2.807  15.281  1.00 17.87     0.009 C 
ATOM     85  CG2 VAL A  98      -4.888   4.218  15.706  1.00 29.90     0.012 C 
ATOM     86  CG1 VAL A  98      -5.898   2.053  16.395  1.00 14.79     0.012 C 
ENDBRANCH  83  84
END_RES VAL A  98
BEGIN_RES ASN A 112
REMARK  2 active torsions:
REMARK  status: ('A' for Active; 'I' for Inactive)
REMARK   28  A    between atoms: CA   and  CB  
REMARK   29  A    between atoms: CB   and  CG  
REMARK       I    between atoms: CG   and  ND2 
ROOT
ATOM     87  CA  ASN A 112     -11.790  -8.793  14.069  1.00 37.70     0.185 C 
ENDROOT
BRANCH  87  88
ATOM     88  CB  ASN A 112     -12.992  -7.945  14.465  1.00 26.24     0.137 C 
BRANCH  88  89
ATOM     89  CG  ASN A 112     -13.814  -8.564  15.573  1.00 21.77     0.217 C 
ATOM     90  ND2 ASN A 112     -14.963  -9.131  15.206  1.00  9.31    -0.370 N 
ATOM     91  H04 ASN A 112     -15.559  -9.560  15.901  1.00  9.31     0.159 HD
ATOM     92  H05 ASN A 112     -15.238  -9.132  14.234  1.00  9.31     0.159 HD
ATOM     93  OD1 ASN A 112     -13.428  -8.530  16.747  1.00 21.61    -0.274 OA
ENDBRANCH  88  89
ENDBRANCH  87  88
END_RES ASN A 112
BEGIN_RES PHE A 114
REMARK  2 active torsions:
REMARK  status: ('A' for Active; 'I' for Inactive)
REMARK   30  A    between atoms: CA   and  CB  
REMARK   31  A    between atoms: CB   and  CG  
ROOT
ATOM     94  CA  PHE A 114      -7.754  -3.619  17.012  1.00 26.06     0.180 C 
ENDROOT
BRANCH  94  95
ATOM     95  CB  PHE A 114      -8.890  -3.080  17.867  1.00 19.95     0.073 C 
BRANCH  95  96
ATOM     96  CG  PHE A 114      -9.176  -1.633  17.628  1.00 17.65    -0.056 A 
ATOM     97  CD1 PHE A 114     -10.486  -1.174  17.517  1.00 13.01     0.007 A 
ATOM     98  CE1 PHE A 114     -10.752   0.166  17.266  1.00  6.74     0.001 A 
ATOM     99  CZ  PHE A 114      -9.703   1.070  17.124  1.00  6.27     0.000 A 
ATOM    100  CE2 PHE A 114      -8.396   0.625  17.234  1.00 17.36     0.001 A 
ATOM    101  CD2 PHE A 114      -8.135  -0.726  17.485  1.00 18.39     0.007 A 
ENDBRANCH  95  96
ENDBRANCH  94  95
END_RES PHE A 114
BEGIN_RES VAL A 116
REMARK  1 active torsions:
REMARK  status: ('A' for Active; 'I' for Inactive)
REMARK   32  A    between atoms: CA   and  CB  
ROOT
ATOM    102  CA  VAL A 116      -2.467   0.283  18.565  1.00 13.48     0.180 C 
ENDROOT
BRANCH 102 103
ATOM    103  CB  VAL A 116      -3.101   1.238  19.599  1.00 20.86     0.009 C 
ATOM    104  CG1 VAL A 116      -3.327   2.610  18.957  1.00 25.01     0.012 C 
ATOM    105  CG2 VAL A 116      -4.385   0.662  20.148  1.00 25.34     0.012 C 
ENDBRANCH 102 103
END_RES VAL A 116
BEGIN_RES ILE A 123
REMARK  2 active torsions:
REMARK  status: ('A' for Active; 'I' for Inactive)
REMARK   33  A    between atoms: CA   and  CB  
REMARK   34  A    between atoms: CB   and  CG1 
ROOT
ATOM    106  CA  ILE A 123       1.557  -1.626  23.222  1.00 15.07     0.180 C 
ENDROOT
BRANCH 106 107
ATOM    107  CB  ILE A 123       1.697  -0.112  23.461  1.00 14.41     0.013 C 
ATOM    108  CG2 ILE A 123       3.109   0.211  23.919  1.00 18.35     0.012 C 
BRANCH 107 109
ATOM    109  CG1 ILE A 123       1.366   0.659  22.185  1.00 15.23     0.002 C 
ATOM    110  CD1 ILE A 123       0.273   1.684  22.364  1.00 14.67     0.005 C 
ENDBRANCH 107 109
ENDBRANCH 106 107
END_RES ILE A 123
BEGIN_RES LEU A 124
REMARK  2 active torsions:
REMARK  status: ('A' for Active; 'I' for Inactive)
REMARK   35  A    between atoms: CA   and  CB  
REMARK   36  A    between atoms: CB   and  CG  
ROOT
ATOM    111  CA  LEU A 124      -2.057  -2.686  23.524  1.00 11.86     0.177 C 
ENDROOT
BRANCH 111 112
ATOM    112  CB  LEU A 124      -2.698  -1.652  24.429  1.00 14.60     0.038 C 
BRANCH 112 113
ATOM    113  CG  LEU A 124      -2.649  -0.256  23.826  1.00 16.19    -0.020 C 
ATOM    114  CD1 LEU A 124      -4.087   0.218  23.541  1.00 22.07     0.009 C 
ATOM    115  CD2 LEU A 124      -1.927   0.674  24.769  1.00  9.12     0.009 C 
ENDBRANCH 112 113
ENDBRANCH 111 112
END_RES LEU A 124
BEGIN_RES PHE A 126
REMARK  2 active torsions:
REMARK  status: ('A' for Active; 'I' for Inactive)
REMARK   37  A    between atoms: CA   and  CB  
REMARK   38  A    between atoms: CB   and  CG  
ROOT
ATOM    116  CA  PHE A 126      -8.784  -4.792  22.233  1.00 23.15     0.180 C 
ENDROOT
BRANCH 116 117
ATOM    117  CB  PHE A 126      -9.823  -4.011  21.461  1.00 20.65     0.073 C 
BRANCH 117 118
ATOM    118  CG  PHE A 126     -10.949  -3.542  22.297  1.00 23.65    -0.056 A 
ATOM    119  CD2 PHE A 126     -10.754  -2.568  23.261  1.00 36.63     0.007 A 
ATOM    120  CE2 PHE A 126     -11.823  -2.123  24.051  1.00 36.27     0.001 A 
ATOM    121  CZ  PHE A 126     -13.088  -2.661  23.870  1.00 18.06     0.000 A 
ATOM    122  CE1 PHE A 126     -13.286  -3.632  22.908  1.00  5.50     0.001 A 
ATOM    123  CD1 PHE A 126     -12.218  -4.066  22.124  1.00 15.29     0.007 A 
ENDBRANCH 117 118
ENDBRANCH 116 117
END_RES PHE A 126
BEGIN_RES TRP A 131
REMARK  2 active torsions:
REMARK  status: ('A' for Active; 'I' for Inactive)
REMARK   39  A    between atoms: CA   and  CB  
REMARK   40  A    between atoms: CB   and  CG  
ROOT
ATOM    124  CA  TRP A 131      -8.096  -3.335  26.542  1.00 14.52     0.181 C 
ENDROOT
BRANCH 124 125
ATOM    125  CB  TRP A 131      -7.651  -1.877  26.607  1.00 13.06     0.075 C 
BRANCH 125 126
ATOM    126  CG  TRP A 131      -8.068  -1.047  25.413  1.00 16.97    -0.028 A 
ATOM    127  CD2 TRP A 131      -9.161  -0.126  25.355  1.00 11.34    -0.002 A 
ATOM    128  CE2 TRP A 131      -9.179   0.428  24.061  1.00  5.87     0.042 A 
ATOM    129  CE3 TRP A 131     -10.129   0.282  26.279  1.00  3.80     0.014 A 
ATOM    130  CZ2 TRP A 131     -10.128   1.373  23.666  1.00  1.35     0.030 A 
ATOM    131  NE1 TRP A 131      -8.146  -0.131  23.360  1.00 13.90    -0.365 N 
ATOM    132  CH2 TRP A 131     -11.065   1.757  24.593  1.00  1.00     0.002 A 
ATOM    133  CZ3 TRP A 131     -11.072   1.217  25.893  1.00  1.00     0.001 A 
ATOM    134  CD1 TRP A 131      -7.481  -1.015  24.177  1.00 17.22     0.096 A 
ATOM    135  H07 TRP A 131      -7.909   0.073  22.399  1.00 13.90     0.165 HD
ENDBRANCH 125 126
ENDBRANCH 124 125
END_RES TRP A 131
BEGIN_RES LEU A 148
REMARK  2 active torsions:
REMARK  status: ('A' for Active; 'I' for Inactive)
REMARK   41  A    between atoms: CA   and  CB  
REMARK   42  A    between atoms: CB   and  CG  
ROOT
ATOM    136  CA  LEU A 148      -9.018   3.259  29.295  1.00 16.99     0.177 C 
ENDROOT
BRANCH 136 137
ATOM    137  CB  LEU A 148      -8.166   2.574  28.236  1.00  6.39     0.038 C 
BRANCH 137 138
ATOM    138  CG  LEU A 148      -8.012   3.169  26.851  1.00  1.00    -0.020 C 
ATOM    139  CD2 LEU A 148      -6.815   2.580  26.162  1.00  1.00     0.009 C 
ATOM    140  CD1 LEU A 148      -7.860   4.672  26.994  1.00  2.71     0.009 C 
ENDBRANCH 137 138
ENDBRANCH 136 137
END_RES LEU A 148
BEGIN_RES THR A 154
REMARK  2 active torsions:
REMARK  status: ('A' for Active; 'I' for Inactive)
REMARK   43  A    between atoms: CA   and  CB  
REMARK   44  A    between atoms: CB   and  OG1 
ROOT
ATOM    141  CA  THR A 154     -15.990   3.959  24.426  1.00 20.45     0.205 C 
ENDROOT
BRANCH 141 142
ATOM    142  CB  THR A 154     -14.777   4.829  24.694  1.00 16.79     0.146 C 
ATOM    143  CG2 THR A 154     -13.678   4.516  23.697  1.00 20.24     0.042 C 
BRANCH 142 144
ATOM    144  OG1 THR A 154     -15.152   6.205  24.552  1.00 18.84    -0.393 OA
ATOM    145  H06 THR A 154     -15.068   6.467  23.633  1.00 18.84     0.210 HD
ENDBRANCH 142 144
ENDBRANCH 141 142
END_RES THR A 154
BEGIN_RES VAL A 158
REMARK  1 active torsions:
REMARK  status: ('A' for Active; 'I' for Inactive)
REMARK   45  A    between atoms: CA   and  CB  
ROOT
ATOM    146  CA  VAL A 158     -15.487  -0.189  19.892  1.00 15.49     0.180 C 
ENDROOT
BRANCH 146 147
ATOM    147  CB  VAL A 158     -14.291  -0.273  20.822  1.00  6.52     0.009 C 
ATOM    148  CG1 VAL A 158     -13.186  -1.099  20.206  1.00  1.00     0.012 C 
ATOM    149  CG2 VAL A 158     -13.813   1.115  21.116  1.00  5.99     0.012 C 
ENDBRANCH 146 147
END_RES VAL A 158
BEGIN_RES LEU A 161
REMARK  2 active torsions:
REMARK  status: ('A' for Active; 'I' for Inactive)
REMARK   46  A    between atoms: CA   and  CB  
REMARK   47  A    between atoms: CB   and  CG  
ROOT
ATOM    150  CA  LEU A 161     -18.031  -1.858  15.935  1.00 13.31     0.177 C 
ENDROOT
BRANCH 150 151
ATOM    151  CB  LEU A 161     -17.046  -0.706  16.001  1.00 14.13     0.038 C 
BRANCH 151 152
ATOM    152  CG  LEU A 161     -15.736  -0.894  15.247  1.00 19.39    -0.020 C 
ATOM    153  CD2 LEU A 161     -14.567  -0.526  16.129  1.00 27.75     0.009 C 
ATOM    154  CD1 LEU A 161     -15.751  -0.023  14.020  1.00 18.59     0.009 C 
ENDBRANCH 151 152
ENDBRANCH 150 151
END_RES LEU A 161
BEGIN_RES GLN A 168
REMARK  3 active torsions:
REMARK  status: ('A' for Active; 'I' for Inactive)
REMARK   48  A    between atoms: CA   and  CB  
REMARK   49  A    between atoms: CB   and  CG  
REMARK   50  A    between atoms: CG   and  CD  
REMARK       I    between atoms: CD   and  NE2 
ROOT
ATOM    155  CA  GLN A 168     -22.035  -6.020   8.155  1.00 30.94     0.177 C 
ENDROOT
BRANCH 155 156
ATOM    156  CB  GLN A 168     -23.054  -5.218   8.946  1.00 41.76     0.044 C 
BRANCH 156 157
ATOM    157  CG  GLN A 168     -24.488  -5.560   8.644  1.00 61.20     0.105 C 
BRANCH 157 158
ATOM    158  CD  GLN A 168     -25.165  -4.480   7.823  1.00 75.49     0.215 C 
ATOM    159  NE2 GLN A 168     -26.129  -3.790   8.436  1.00 85.00    -0.370 N 
ATOM    160  H06 GLN A 168     -26.619  -3.059   7.941  1.00 85.00     0.159 HD
ATOM    161  H07 GLN A 168     -26.367  -3.999   9.395  1.00 85.00     0.159 HD
ATOM    162  OE1 GLN A 168     -24.835  -4.269   6.647  1.00 73.64    -0.274 OA
ENDBRANCH 157 158
ENDBRANCH 156 157
ENDBRANCH 155 156
END_RES GLN A 168
ENDMDL
MODEL 8
REMARK VINA RESULT:      -6.6      2.666      8.888
REMARK  Name = human_CD1d_Tween20_pred.rank_0
REMARK  75 active torsions:
REMARK  status: ('A' for Active; 'I' for Inactive)
REMARK    1  A    between atoms: C_1  and  C_3
REMARK    2  A    between atoms: C_3  and  O_4
REMARK    3  A    between atoms: O_4  and  C_5
REMARK    4  A    between atoms: C_5  and  C_7
REMARK    5  A    between atoms: O_6  and  C_7
REMARK    6  A    between atoms: O_6  and  C_9
REMARK    7  A    between atoms: O_8  and  C_11
REMARK    8  A    between atoms: O_8  and  C_13
REMARK    9  A    between atoms: C_9  and  C_11
REMARK   10  A    between atoms: O_10  and  C_15
REMARK   11  A    between atoms: O_10  and  C_17
REMARK   12  A    between atoms: O_12  and  C_19
REMARK   13  A    between atoms: O_12  and  C_21
REMARK   14  A    between atoms: C_13  and  C_15
REMARK   15  A    between atoms: O_14  and  C_23
REMARK   16  A    between atoms: O_14  and  C_25
REMARK   17  A    between atoms: O_16  and  C_27
REMARK   18  A    between atoms: O_16  and  C_29
REMARK   19  A    between atoms: C_17  and  C_19
REMARK   20  A    between atoms: O_18  and  C_31
REMARK   21  A    between atoms: O_18  and  C_33
REMARK   22  A    between atoms: O_20  and  C_35
REMARK   23  A    between atoms: O_20  and  C_37
REMARK   24  A    between atoms: C_21  and  C_23
REMARK   25  A    between atoms: C_21  and  C_61
REMARK   26  A    between atoms: O_22  and  C_39
REMARK   27  A    between atoms: O_22  and  C_41
REMARK   28  A    between atoms: O_24  and  C_43
REMARK   29  A    between atoms: O_24  and  C_45
REMARK   30  A    between atoms: C_25  and  C_27
REMARK   31  A    between atoms: O_28  and  C_63
REMARK   32  A    between atoms: O_28  and  C_64
REMARK   33  A    between atoms: C_29  and  C_31
REMARK   34  A    between atoms: O_30  and  C_65
REMARK   35  A    between atoms: O_30  and  C_66
REMARK   36  A    between atoms: O_32  and  C_67
REMARK   37  A    between atoms: O_32  and  C_68
REMARK   38  A    between atoms: C_33  and  C_35
REMARK   39  A    between atoms: O_34  and  C_69
REMARK   40  A    between atoms: O_34  and  C_70
REMARK   41  A    between atoms: O_36  and  C_71
REMARK   42  A    between atoms: O_36  and  C_72
REMARK   43  A    between atoms: C_37  and  C_39
REMARK   44  A    between atoms: O_40  and  C_74
REMARK   45  A    between atoms: O_40  and  C_75
REMARK   46  A    between atoms: C_41  and  C_43
REMARK   47  A    between atoms: O_42  and  C_76
REMARK   48  A    between atoms: O_42  and  C_77
REMARK   49  A    between atoms: O_44  and  C_78
REMARK   50  A    between atoms: O_44  and  C_79
REMARK   51  A    between atoms: C_45  and  C_47
REMARK   52  A    between atoms: O_46  and  C_80
REMARK   53  A    between atoms: O_46  and  C_81
REMARK   54  A    between atoms: C_47  and  C_49
REMARK   55  A    between atoms: O_48  and  C_82
REMARK   56  A    between atoms: O_48  and  C_83
REMARK   57  A    between atoms: C_49  and  C_51
REMARK   58  A    between atoms: C_51  and  C_53
REMARK   59  A    between atoms: C_53  and  C_54
REMARK   60  A    between atoms: C_54  and  C_55
REMARK   61  A    between atoms: C_55  and  C_56
REMARK   62  A    between atoms: C_56  and  C_57
REMARK   63  A    between atoms: C_57  and  C_58
REMARK   64  A    between atoms: C_58  and  C_59
REMARK   65  A    between atoms: C_61  and  C_62
REMARK   66  A    between atoms: C_64  and  C_65
REMARK   67  A    between atoms: C_66  and  C_67
REMARK   68  A    between atoms: C_68  and  C_69
REMARK   69  A    between atoms: C_70  and  C_71
REMARK   70  A    between atoms: C_72  and  C_73
REMARK   71  A    between atoms: C_75  and  C_76
REMARK   72  A    between atoms: C_77  and  C_78
REMARK   73  A    between atoms: C_79  and  C_80
REMARK   74  A    between atoms: C_81  and  C_82
REMARK   75  A    between atoms: C_83  and  C_84
REMARK                            x       y       z     vdW  Elec       q    Type
REMARK                         _______ _______ _______ _____ _____    ______ ____
ROOT
ATOM      1  C   UNL     1     -17.064   8.394  19.231  0.00  0.00    +0.000 C 
ENDROOT
BRANCH   1   2
ATOM      2  C   UNL     1     -16.056   9.212  20.133  0.00  0.00    +0.000 C 
BRANCH   2   4
ATOM      3  O   UNL     1     -16.989   8.923  22.434  0.00  0.00    +0.000 OA
ATOM      4  C   UNL     1     -15.883   8.539  21.464  0.00  0.00    +0.000 C 
ATOM      5  C   UNL     1     -14.647   9.146  22.132  0.00  0.00    +0.000 C 
ATOM      6  C   UNL     1     -15.273   9.822  23.353  0.00  0.00    +0.000 C 
ATOM      7  C   UNL     1     -16.554   9.110  23.684  0.00  0.00    +0.000 C 
BRANCH   6   8
ATOM      8  O   UNL     1     -15.417  11.194  22.989  0.00  0.00    +0.000 OA
BRANCH   8   9
ATOM      9  C   UNL     1     -16.156  11.972  23.912  0.00  0.00    +0.000 C 
BRANCH   9  10
ATOM     10  C   UNL     1     -15.232  12.947  24.572  0.00  0.00    +0.000 C 
BRANCH  10  11
ATOM     11  O   UNL     1     -14.893  13.968  23.664  0.00  0.00    +0.000 OA
BRANCH  11  12
ATOM     12  C   UNL     1     -15.914  14.934  23.535  0.00  0.00    +0.000 C 
BRANCH  12  13
ATOM     13  C   UNL     1     -16.221  15.114  22.062  0.00  0.00    +0.000 C 
BRANCH  13  14
ATOM     14  O   UNL     1     -16.621  16.417  21.806  0.00  0.00    +0.000 OA
BRANCH  14  15
ATOM     15  C   UNL     1     -17.479  16.552  20.743  0.00  0.00    +0.000 C 
BRANCH  15  16
ATOM     16  C   UNL     1     -18.667  15.665  20.940  0.00  0.00    +0.000 C 
BRANCH  16  17
ATOM     17  O   UNL     1     -19.339  15.431  19.717  0.00  0.00    +0.000 OA
BRANCH  17  18
ATOM     18  C   UNL     1     -20.345  14.438  19.853  0.00  0.00    +0.000 C 
BRANCH  18  19
ATOM     19  C   UNL     1     -19.945  13.425  20.899  0.00  0.00    +0.000 C 
BRANCH  19  20
ATOM     20  O   UNL     1     -19.966  12.140  20.332  0.00  0.00    +0.000 OA
BRANCH  20  21
ATOM     21  C   UNL     1     -20.237  11.176  21.339  0.00  0.00    +0.000 C 
BRANCH  21  23
ATOM     22  O   UNL     1     -19.721  10.598  23.630  0.00  0.00    +0.000 OA
ATOM     23  C   UNL     1     -19.834  11.712  22.663  0.00  0.00    +0.000 C 
ENDBRANCH  21  23
ENDBRANCH  20  21
ENDBRANCH  19  20
ENDBRANCH  18  19
ENDBRANCH  17  18
ENDBRANCH  16  17
ENDBRANCH  15  16
ENDBRANCH  14  15
ENDBRANCH  13  14
ENDBRANCH  12  13
ENDBRANCH  11  12
ENDBRANCH  10  11
ENDBRANCH   9  10
ENDBRANCH   8   9
ENDBRANCH   6   8
BRANCH   5  24
ATOM     24  O   UNL     1     -13.821   8.106  22.581  0.00  0.00    +0.000 OA
BRANCH  24  25
ATOM     25  C   UNL     1     -12.694   8.574  23.244  0.00  0.00    +0.000 C 
BRANCH  25  26
ATOM     26  C   UNL     1     -11.436   8.262  22.400  0.00  0.00    +0.000 C 
BRANCH  26  27
ATOM     27  O   UNL     1     -11.036   6.927  22.683  0.00  0.00    +0.000 OA
BRANCH  27  28
ATOM     28  C   UNL     1      -9.722   6.718  22.319  0.00  0.00    +0.000 C 
BRANCH  28  29
ATOM     29  C   UNL     1      -9.478   5.210  22.234  0.00  0.00    +0.000 C 
BRANCH  29  30
ATOM     30  O   UNL     1      -9.111   4.911  20.933  0.00  0.00    +0.000 OA
BRANCH  30  31
ATOM     31  C   UNL     1      -8.320   3.742  20.841  0.00  0.00    +0.000 C 
BRANCH  31  32
ATOM     32  C   UNL     1      -7.861   3.593  19.447  0.00  0.00    +0.000 C 
BRANCH  32  33
ATOM     33  O   UNL     1      -8.750   4.310  18.616  0.00  0.00    +0.000 OA
BRANCH  33  34
ATOM     34  C   UNL     1      -8.057   4.918  17.581  0.00  0.00    +0.000 C 
BRANCH  34  35
ATOM     35  C   UNL     1      -8.645   4.445  16.253  0.00  0.00    +0.000 C 
BRANCH  35  36
ATOM     36  O   UNL     1      -8.559   5.514  15.322  0.00  0.00    +0.000 OA
BRANCH  36  37
ATOM     37  C   UNL     1      -8.507   6.734  15.995  0.00  0.00    +0.000 C 
BRANCH  37  39
ATOM     38  O   UNL     1      -8.275   8.954  15.218  0.00  0.00    +0.000 OA
ATOM     39  C   UNL     1      -9.118   7.822  15.152  0.00  0.00    +0.000 C 
ENDBRANCH  37  39
ENDBRANCH  36  37
ENDBRANCH  35  36
ENDBRANCH  34  35
ENDBRANCH  33  34
ENDBRANCH  32  33
ENDBRANCH  31  32
ENDBRANCH  30  31
ENDBRANCH  29  30
ENDBRANCH  28  29
ENDBRANCH  27  28
ENDBRANCH  26  27
ENDBRANCH  25  26
ENDBRANCH  24  25
ENDBRANCH   5  24
ENDBRANCH   2   4
ENDBRANCH   1   2
BRANCH   1  40
ATOM     40  O   UNL     1     -18.422   8.799  19.428  0.00  0.00    +0.000 OA
BRANCH  40  41
ATOM     41  C   UNL     1     -19.305   8.526  18.363  0.00  0.00    +0.000 C 
BRANCH  41  42
ATOM     42  C   UNL     1     -19.881   9.790  17.790  0.00  0.00    +0.000 C 
BRANCH  42  43
ATOM     43  O   UNL     1     -21.236   9.668  17.545  0.00  0.00    +0.000 OA
BRANCH  43  44
ATOM     44  C   UNL     1     -21.942   9.138  18.613  0.00  0.00    +0.000 C 
BRANCH  44  45
ATOM     45  C   UNL     1     -23.218   9.893  18.808  0.00  0.00    +0.000 C 
BRANCH  45  46
ATOM     46  O   UNL     1     -24.309   9.194  18.379  0.00  0.00    +0.000 OA
BRANCH  46  47
ATOM     47  C   UNL     1     -25.450   9.359  19.221  0.00  0.00    +0.000 C 
BRANCH  47  48
ATOM     48  C   UNL     1     -26.589   9.859  18.413  0.00  0.00    +0.000 C 
BRANCH  48  49
ATOM     49  O   UNL     1     -26.525  11.258  18.366  0.00  0.00    +0.000 OA
BRANCH  49  50
ATOM     50  C   UNL     1     -26.597  11.732  17.032  0.00  0.00    +0.000 C 
BRANCH  50  51
ATOM     51  C   UNL     1     -25.262  12.213  16.632  0.00  0.00    +0.000 C 
BRANCH  51  52
ATOM     52  O   UNL     1     -24.783  11.356  15.649  0.00  0.00    +0.000 OA
BRANCH  52  53
ATOM     53  C   UNL     1     -24.876  11.926  14.347  0.00  0.00    +0.000 C 
BRANCH  53  54
ATOM     54  C   UNL     1     -24.897  10.866  13.267  0.00  0.00    +0.000 C 
ATOM     55  O   UNL     1     -25.764   9.803  13.650  0.00  0.00    +0.000 OA
ENDBRANCH  53  54
ENDBRANCH  52  53
ENDBRANCH  51  52
ENDBRANCH  50  51
ENDBRANCH  49  50
ENDBRANCH  48  49
ENDBRANCH  47  48
ENDBRANCH  46  47
ENDBRANCH  45  46
ENDBRANCH  44  45
ENDBRANCH  43  44
ENDBRANCH  42  43
ENDBRANCH  41  42
ENDBRANCH  40  41
ENDBRANCH   1  40
BRANCH   1  56
ATOM     56  C   UNL     1     -17.004   6.944  19.553  0.00  0.00    +0.000 C 
BRANCH  56  57
ATOM     57  O   UNL     1     -16.097   6.422  18.656  0.00  0.00    +0.000 OA
BRANCH  57  58
ATOM     58  C   UNL     1     -15.681   5.098  19.046  0.00  0.00    +0.000 C 
BRANCH  58  59
ATOM     59  C   UNL     1     -15.370   4.272  17.805  0.00  0.00    +0.000 C 
BRANCH  59  60
ATOM     60  O   UNL     1     -15.092   2.943  18.152  0.00  0.00    +0.000 OA
BRANCH  60  61
ATOM     61  C   UNL     1     -14.042   2.368  17.393  0.00  0.00    +0.000 C 
BRANCH  61  62
ATOM     62  C   UNL     1     -13.953   2.928  15.977  0.00  0.00    +0.000 C 
BRANCH  62  63
ATOM     63  O   UNL     1     -12.817   2.391  15.334  0.00  0.00    +0.000 OA
BRANCH  63  64
ATOM     64  C   UNL     1     -12.878   2.577  13.940  0.00  0.00    +0.000 C 
BRANCH  64  65
ATOM     65  C   UNL     1     -11.798   1.732  13.280  0.00  0.00    +0.000 C 
BRANCH  65  66
ATOM     66  O   UNL     1     -11.069   2.568  12.388  0.00  0.00    +0.000 OA
BRANCH  66  67
ATOM     67  C   UNL     1      -9.954   3.137  12.977  0.00  0.00    +0.000 C 
BRANCH  67  68
ATOM     68  C   UNL     1      -8.993   3.572  11.892  0.00  0.00    +0.000 C 
BRANCH  68  69
ATOM     69  O   UNL     1      -9.176   4.952  11.709  0.00  0.00    +0.000 OA
BRANCH  69  70
ATOM     70  C   UNL     1      -8.946   5.355  10.412  0.00  0.00    +0.000 C 
BRANCH  70  71
ATOM     71  C   UNL     1      -9.450   4.293   9.454  0.00  0.00    +0.000 C 
BRANCH  71  72
ATOM     72  O   UNL     1      -9.068   4.731   8.179  0.00  0.00    +0.000 OA
BRANCH  72  74
ATOM     73  O   UNL     1     -10.066   5.974   6.645  0.00  0.00    +0.000 OA
ATOM     74  C   UNL     1     -10.126   5.058   7.396  0.00  0.00    +0.000 C 
BRANCH  74  75
ATOM     75  C   UNL     1     -11.316   4.206   7.545  0.00  0.00    +0.000 C 
BRANCH  75  76
ATOM     76  C   UNL     1     -12.377   4.664   6.528  0.00  0.00    +0.000 C 
BRANCH  76  77
ATOM     77  C   UNL     1     -13.708   4.015   6.856  0.00  0.00    +0.000 C 
BRANCH  77  78
ATOM     78  C   UNL     1     -14.785   5.086   6.928  0.00  0.00    +0.000 C 
BRANCH  78  79
ATOM     79  C   UNL     1     -15.859   4.613   7.876  0.00  0.00    +0.000 C 
BRANCH  79  80
ATOM     80  C   UNL     1     -15.351   3.327   8.539  0.00  0.00    +0.000 C 
BRANCH  80  81
ATOM     81  C   UNL     1     -16.540   2.495   8.957  0.00  0.00    +0.000 C 
BRANCH  81  82
ATOM     82  C   UNL     1     -16.414   2.150  10.438  0.00  0.00    +0.000 C 
BRANCH  82  83
ATOM     83  C   UNL     1     -15.455   3.099  11.143  0.00  0.00    +0.000 C 
BRANCH  83  84
ATOM     84  C   UNL     1     -16.069   3.729  12.357  0.00  0.00    +0.000 C 
ATOM     85  C   UNL     1     -16.454   5.156  12.101  0.00  0.00    +0.000 C 
ENDBRANCH  83  84
ENDBRANCH  82  83
ENDBRANCH  81  82
ENDBRANCH  80  81
ENDBRANCH  79  80
ENDBRANCH  78  79
ENDBRANCH  77  78
ENDBRANCH  76  77
ENDBRANCH  75  76
ENDBRANCH  74  75
ENDBRANCH  72  74
ENDBRANCH  71  72
ENDBRANCH  70  71
ENDBRANCH  69  70
ENDBRANCH  68  69
ENDBRANCH  67  68
ENDBRANCH  66  67
ENDBRANCH  65  66
ENDBRANCH  64  65
ENDBRANCH  63  64
ENDBRANCH  62  63
ENDBRANCH  61  62
ENDBRANCH  60  61
ENDBRANCH  59  60
ENDBRANCH  58  59
ENDBRANCH  57  58
ENDBRANCH  56  57
ENDBRANCH   1  56
TORSDOF 75
BEGIN_RES LEU A  10
REMARK  2 active torsions:
REMARK  status: ('A' for Active; 'I' for Inactive)
REMARK    1  A    between atoms: CA   and  CB  
REMARK    2  A    between atoms: CB   and  CG  
ROOT
ATOM      1  CA  LEU A  10     -10.775  -4.871   5.898  1.00 25.14     0.177 C 
ENDROOT
BRANCH   1   2
ATOM      2  CB  LEU A  10     -12.191  -4.387   6.226  1.00 17.87     0.038 C 
BRANCH   2   3
ATOM      3  CG  LEU A  10     -12.423  -2.895   5.980  1.00 24.95    -0.020 C 
ATOM      4  CD2 LEU A  10     -13.589  -2.443   6.792  1.00 26.38     0.009 C 
ATOM      5  CD1 LEU A  10     -12.659  -2.618   4.505  1.00 28.12     0.009 C 
ENDBRANCH   2   3
ENDBRANCH   1   2
END_RES LEU A  10
BEGIN_RES CYS A  12
REMARK  2 active torsions:
REMARK  status: ('A' for Active; 'I' for Inactive)
REMARK    3  A    between atoms: CA   and  CB  
REMARK    4  A    between atoms: CB   and  SG  
ROOT
ATOM      6  CA  CYS A  12      -8.555   0.470   8.750  1.00 23.16     0.185 C 
ENDROOT
BRANCH   6   7
ATOM      7  CB  CYS A  12      -9.828   0.763   9.555  1.00 20.43     0.105 C 
BRANCH   7   8
ATOM      8  SG  CYS A  12     -11.401   0.586   8.658  1.00 24.64    -0.180 SA
ATOM      9  H04 CYS A  12     -12.422   0.800   9.498  1.00 24.64     0.101 HD
ENDBRANCH   7   8
ENDBRANCH   6   7
END_RES CYS A  12
BEGIN_RES GLN A  14
REMARK  3 active torsions:
REMARK  status: ('A' for Active; 'I' for Inactive)
REMARK    5  A    between atoms: CA   and  CB  
REMARK    6  A    between atoms: CB   and  CG  
REMARK    7  A    between atoms: CG   and  CD  
REMARK       I    between atoms: CD   and  NE2 
ROOT
ATOM     10  CA  GLN A  14      -4.645   5.402  11.377  1.00 10.43     0.177 C 
ENDROOT
BRANCH  10  11
ATOM     11  CB  GLN A  14      -5.541   5.549  12.608  1.00 14.45     0.044 C 
BRANCH  11  12
ATOM     12  CG  GLN A  14      -6.356   6.821  12.629  1.00 13.74     0.105 C 
BRANCH  12  13
ATOM     13  CD  GLN A  14      -5.554   8.013  13.095  1.00 16.29     0.215 C 
ATOM     14  NE2 GLN A  14      -5.365   8.122  14.392  1.00  8.57    -0.370 N 
ATOM     15  H06 GLN A  14      -4.834   8.898  14.761  1.00  8.57     0.159 HD
ATOM     16  H07 GLN A  14      -5.749   7.429  15.018  1.00  8.57     0.159 HD
ATOM     17  OE1 GLN A  14      -5.109   8.823  12.297  1.00 23.55    -0.274 OA
ENDBRANCH  12  13
ENDBRANCH  11  12
ENDBRANCH  10  11
END_RES GLN A  14
BEGIN_RES SER A  16
REMARK  2 active torsions:
REMARK  status: ('A' for Active; 'I' for Inactive)
REMARK    8  A    between atoms: CA   and  CB  
REMARK    9  A    between atoms: CB   and  OG  
ROOT
ATOM     18  CA  SER A  16      -1.305  10.019  14.282  1.00  2.34     0.200 C 
ENDROOT
BRANCH  18  19
ATOM     19  CB  SER A  16      -2.242   9.935  15.479  1.00  3.12     0.199 C 
BRANCH  19  20
ATOM     20  OG  SER A  16      -2.645   8.594  15.696  1.00  1.00    -0.398 OA
ATOM     21  H04 SER A  16      -2.538   8.374  16.624  1.00  1.00     0.209 HD
ENDBRANCH  19  20
ENDBRANCH  18  19
END_RES SER A  16
BEGIN_RES LEU A  32
REMARK  2 active torsions:
REMARK  status: ('A' for Active; 'I' for Inactive)
REMARK   10  A    between atoms: CA   and  CB  
REMARK   11  A    between atoms: CB   and  CG  
ROOT
ATOM     22  CA  LEU A  32     -10.272  -4.106   1.587  1.00 16.16     0.177 C 
ENDROOT
BRANCH  22  23
ATOM     23  CB  LEU A  32     -11.613  -3.858   0.880  1.00 12.35     0.038 C 
BRANCH  23  24
ATOM     24  CG  LEU A  32     -12.507  -5.115   0.886  1.00  9.77    -0.020 C 
ATOM     25  CD1 LEU A  32     -12.984  -5.413   2.288  1.00  4.35     0.009 C 
ATOM     26  CD2 LEU A  32     -13.691  -4.937  -0.027  1.00 10.60     0.009 C 
ENDBRANCH  23  24
ENDBRANCH  22  23
END_RES LEU A  32
BEGIN_RES HIS A  38
REMARK  2 active torsions:
REMARK  status: ('A' for Active; 'I' for Inactive)
REMARK   12  A    between atoms: CA   and  CB  
REMARK   13  A    between atoms: CB   and  CG  
ROOT
ATOM     27  CA  HIS A  38     -10.959   4.941   1.621  1.00 16.94     0.182 C 
ENDROOT
BRANCH  27  28
ATOM     28  CB  HIS A  38     -11.810   4.840   2.881  1.00 15.47     0.095 C 
BRANCH  28  29
ATOM     29  CG  HIS A  38     -12.989   3.932   2.742  1.00 18.62     0.053 A 
ATOM     30  CD2 HIS A  38     -14.151   4.082   2.061  1.00 15.06     0.116 A 
ATOM     31  NE2 HIS A  38     -14.875   2.932   2.245  1.00 18.12    -0.359 N 
ATOM     32  CE1 HIS A  38     -14.187   2.107   3.010  1.00 14.78     0.207 A 
ATOM     33  H06 HIS A  38     -15.789   2.748   1.857  1.00 18.12     0.166 HD
ATOM     34  ND1 HIS A  38     -13.045   2.685   3.325  1.00 16.58    -0.247 NA
ENDBRANCH  28  29
ENDBRANCH  27  28
END_RES HIS A  38
BEGIN_RES TRP A  63
REMARK  2 active torsions:
REMARK  status: ('A' for Active; 'I' for Inactive)
REMARK   14  A    between atoms: CA   and  CB  
REMARK   15  A    between atoms: CB   and  CG  
ROOT
ATOM     35  CA  TRP A  63     -22.437   6.257   6.543  1.00 27.04     0.181 C 
ENDROOT
BRANCH  35  36
ATOM     36  CB  TRP A  63     -22.360   6.642   5.068  1.00 31.37     0.075 C 
BRANCH  36  37
ATOM     37  CG  TRP A  63     -20.954   6.723   4.511  1.00 34.37    -0.028 A 
ATOM     38  CD2 TRP A  63     -19.900   5.764   4.674  1.00 33.79    -0.002 A 
ATOM     39  CE3 TRP A  63     -19.778   4.562   5.376  1.00 32.99     0.014 A 
ATOM     40  CE2 TRP A  63     -18.797   6.225   3.923  1.00 35.84     0.042 A 
ATOM     41  CZ3 TRP A  63     -18.578   3.869   5.309  1.00 32.93     0.001 A 
ATOM     42  CH2 TRP A  63     -17.499   4.355   4.554  1.00 39.24     0.002 A 
ATOM     43  CZ2 TRP A  63     -17.590   5.528   3.854  1.00 37.99     0.030 A 
ATOM     44  NE1 TRP A  63     -19.167   7.405   3.338  1.00 37.98    -0.365 N 
ATOM     45  H06 TRP A  63     -18.584   7.971   2.738  1.00 37.98     0.165 HD
ATOM     46  CD1 TRP A  63     -20.461   7.695   3.699  1.00 38.16     0.096 A 
ENDBRANCH  36  37
ENDBRANCH  35  36
END_RES TRP A  63
BEGIN_RES LEU A  66
REMARK  2 active torsions:
REMARK  status: ('A' for Active; 'I' for Inactive)
REMARK   16  A    between atoms: CA   and  CB  
REMARK   17  A    between atoms: CB   and  CG  
ROOT
ATOM     47  CA  LEU A  66     -20.004   6.489  11.120  1.00 10.90     0.177 C 
ENDROOT
BRANCH  47  48
ATOM     48  CB  LEU A  66     -19.626   5.453  10.069  1.00 13.57     0.038 C 
BRANCH  48  49
ATOM     49  CG  LEU A  66     -19.530   3.997  10.524  1.00  8.73    -0.020 C 
ATOM     50  CD1 LEU A  66     -19.897   3.871  11.980  1.00 14.23     0.009 C 
ATOM     51  CD2 LEU A  66     -20.467   3.171   9.682  1.00  1.92     0.009 C 
ENDBRANCH  48  49
ENDBRANCH  47  48
END_RES LEU A  66
BEGIN_RES PHE A  70
REMARK  2 active torsions:
REMARK  status: ('A' for Active; 'I' for Inactive)
REMARK   18  A    between atoms: CA   and  CB  
REMARK   19  A    between atoms: CB   and  CG  
ROOT
ATOM     52  CA  PHE A  70     -14.974   9.434  13.165  1.00  8.78     0.180 C 
ENDROOT
BRANCH  52  53
ATOM     53  CB  PHE A  70     -14.707   9.132  11.681  1.00  6.33     0.073 C 
BRANCH  53  54
ATOM     54  CG  PHE A  70     -14.000   7.823  11.455  1.00  3.42    -0.056 A 
ATOM     55  CD1 PHE A  70     -13.458   7.110  12.513  1.00 13.88     0.007 A 
ATOM     56  CE1 PHE A  70     -12.758   5.912  12.289  1.00 12.71     0.001 A 
ATOM     57  CZ  PHE A  70     -12.601   5.423  10.992  1.00  4.21     0.000 A 
ATOM     58  CE2 PHE A  70     -13.139   6.123   9.929  1.00  2.83     0.001 A 
ATOM     59  CD2 PHE A  70     -13.837   7.320  10.163  1.00  1.00     0.007 A 
ENDBRANCH  53  54
ENDBRANCH  52  53
END_RES PHE A  70
BEGIN_RES TYR A  73
REMARK  3 active torsions:
REMARK  status: ('A' for Active; 'I' for Inactive)
REMARK   20  A    between atoms: CA   and  CB  
REMARK   21  A    between atoms: CB   and  CG  
REMARK   22  A    between atoms: CZ   and  OH  
ROOT
ATOM     60  CA  TYR A  73     -13.212  10.166  17.260  1.00 12.17     0.180 C 
ENDROOT
BRANCH  60  61
ATOM     61  CB  TYR A  73     -13.301   8.846  16.517  1.00 12.84     0.073 C 
BRANCH  61  62
ATOM     62  CG  TYR A  73     -12.827   7.689  17.325  1.00 15.89    -0.056 A 
ATOM     63  CD1 TYR A  73     -12.316   6.561  16.720  1.00 16.00     0.010 A 
ATOM     64  CE1 TYR A  73     -11.900   5.464  17.473  1.00 13.55     0.037 A 
ATOM     65  CZ  TYR A  73     -12.004   5.509  18.849  1.00 18.13     0.065 A 
ATOM     66  CE2 TYR A  73     -12.509   6.623  19.478  1.00 15.89     0.037 A 
ATOM     67  CD2 TYR A  73     -12.918   7.708  18.712  1.00 21.86     0.010 A 
BRANCH  65  68
ATOM     68  OH  TYR A  73     -11.595   4.442  19.611  1.00 12.12    -0.361 OA
ATOM     69  H08 TYR A  73     -11.678   3.633  19.101  1.00 12.12     0.217 HD
ENDBRANCH  65  68
ENDBRANCH  61  62
ENDBRANCH  60  61
END_RES TYR A  73
BEGIN_RES PHE A  77
REMARK  2 active torsions:
REMARK  status: ('A' for Active; 'I' for Inactive)
REMARK   23  A    between atoms: CA   and  CB  
REMARK   24  A    between atoms: CB   and  CG  
ROOT
ATOM     70  CA  PHE A  77      -8.400  10.581  20.110  1.00 17.17     0.180 C 
ENDROOT
BRANCH  70  71
ATOM     71  CB  PHE A  77      -8.228   9.750  18.851  1.00 10.44     0.073 C 
BRANCH  71  72
ATOM     72  CG  PHE A  77      -7.165   8.703  18.961  1.00  6.07    -0.056 A 
ATOM     73  CD2 PHE A  77      -6.149   8.638  18.035  1.00  9.61     0.007 A 
ATOM     74  CE2 PHE A  77      -5.156   7.669  18.129  1.00  1.00     0.001 A 
ATOM     75  CZ  PHE A  77      -5.180   6.754  19.168  1.00  1.92     0.000 A 
ATOM     76  CE1 PHE A  77      -6.188   6.807  20.104  1.00  9.25     0.001 A 
ATOM     77  CD1 PHE A  77      -7.179   7.782  19.996  1.00  9.63     0.007 A 
ENDBRANCH  71  72
ENDBRANCH  70  71
END_RES PHE A  77
BEGIN_RES LEU A  96
REMARK  2 active torsions:
REMARK  status: ('A' for Active; 'I' for Inactive)
REMARK   25  A    between atoms: CA   and  CB  
REMARK   26  A    between atoms: CB   and  CG  
ROOT
ATOM     78  CA  LEU A  96       0.717   6.481  17.359  1.00 16.08     0.177 C 
ENDROOT
BRANCH  78  79
ATOM     79  CB  LEU A  96      -0.370   7.101  18.230  1.00 18.83     0.038 C 
BRANCH  79  80
ATOM     80  CG  LEU A  96      -0.880   6.195  19.351  1.00 19.03    -0.020 C 
ATOM     81  CD1 LEU A  96       0.304   5.671  20.130  1.00 28.17     0.009 C 
ATOM     82  CD2 LEU A  96      -1.769   6.972  20.294  1.00 22.01     0.009 C 
ENDBRANCH  79  80
ENDBRANCH  78  79
END_RES LEU A  96
BEGIN_RES VAL A  98
REMARK  1 active torsions:
REMARK  status: ('A' for Active; 'I' for Inactive)
REMARK   27  A    between atoms: CA   and  CB  
ROOT
ATOM     83  CA  VAL A  98      -3.928   2.082  14.897  1.00 19.83     0.180 C 
ENDROOT
BRANCH  83  84
ATOM     84  CB  VAL A  98      -5.203   2.807  15.281  1.00 17.87     0.009 C 
ATOM     85  CG2 VAL A  98      -4.914   4.265  15.528  1.00 29.90     0.012 C 
ATOM     86  CG1 VAL A  98      -5.801   2.162  16.513  1.00 14.79     0.012 C 
ENDBRANCH  83  84
END_RES VAL A  98
BEGIN_RES ASN A 112
REMARK  2 active torsions:
REMARK  status: ('A' for Active; 'I' for Inactive)
REMARK   28  A    between atoms: CA   and  CB  
REMARK   29  A    between atoms: CB   and  CG  
REMARK       I    between atoms: CG   and  ND2 
ROOT
ATOM     87  CA  ASN A 112     -11.790  -8.793  14.069  1.00 37.70     0.185 C 
ENDROOT
BRANCH  87  88
ATOM     88  CB  ASN A 112     -12.992  -7.945  14.465  1.00 26.24     0.137 C 
BRANCH  88  89
ATOM     89  CG  ASN A 112     -13.810  -8.560  15.578  1.00 21.77     0.217 C 
ATOM     90  ND2 ASN A 112     -14.958  -9.133  15.216  1.00  9.31    -0.370 N 
ATOM     91  H04 ASN A 112     -15.551  -9.560  15.914  1.00  9.31     0.159 HD
ATOM     92  H05 ASN A 112     -15.235  -9.140  14.245  1.00  9.31     0.159 HD
ATOM     93  OD1 ASN A 112     -13.421  -8.519  16.751  1.00 21.61    -0.274 OA
ENDBRANCH  88  89
ENDBRANCH  87  88
END_RES ASN A 112
BEGIN_RES PHE A 114
REMARK  2 active torsions:
REMARK  status: ('A' for Active; 'I' for Inactive)
REMARK   30  A    between atoms: CA   and  CB  
REMARK   31  A    between atoms: CB   and  CG  
ROOT
ATOM     94  CA  PHE A 114      -7.754  -3.619  17.012  1.00 26.06     0.180 C 
ENDROOT
BRANCH  94  95
ATOM     95  CB  PHE A 114      -8.890  -3.080  17.867  1.00 19.95     0.073 C 
BRANCH  95  96
ATOM     96  CG  PHE A 114      -9.214  -1.648  17.587  1.00 17.65    -0.056 A 
ATOM     97  CD1 PHE A 114      -8.205  -0.694  17.495  1.00 13.01     0.007 A 
ATOM     98  CE1 PHE A 114      -8.508   0.642  17.264  1.00  6.74     0.001 A 
ATOM     99  CZ  PHE A 114      -9.833   1.041  17.118  1.00  6.27     0.000 A 
ATOM    100  CE2 PHE A 114     -10.845   0.100  17.206  1.00 17.36     0.001 A 
ATOM    101  CD2 PHE A 114     -10.534  -1.243  17.440  1.00 18.39     0.007 A 
ENDBRANCH  95  96
ENDBRANCH  94  95
END_RES PHE A 114
BEGIN_RES VAL A 116
REMARK  1 active torsions:
REMARK  status: ('A' for Active; 'I' for Inactive)
REMARK   32  A    between atoms: CA   and  CB  
ROOT
ATOM    102  CA  VAL A 116      -2.467   0.283  18.565  1.00 13.48     0.180 C 
ENDROOT
BRANCH 102 103
ATOM    103  CB  VAL A 116      -3.101   1.238  19.599  1.00 20.86     0.009 C 
ATOM    104  CG1 VAL A 116      -3.051   2.673  19.068  1.00 25.01     0.012 C 
ATOM    105  CG2 VAL A 116      -4.514   0.815  19.927  1.00 25.34     0.012 C 
ENDBRANCH 102 103
END_RES VAL A 116
BEGIN_RES ILE A 123
REMARK  2 active torsions:
REMARK  status: ('A' for Active; 'I' for Inactive)
REMARK   33  A    between atoms: CA   and  CB  
REMARK   34  A    between atoms: CB   and  CG1 
ROOT
ATOM    106  CA  ILE A 123       1.557  -1.626  23.222  1.00 15.07     0.180 C 
ENDROOT
BRANCH 106 107
ATOM    107  CB  ILE A 123       1.697  -0.112  23.461  1.00 14.41     0.013 C 
ATOM    108  CG2 ILE A 123       3.107   0.210  23.925  1.00 18.35     0.012 C 
BRANCH 107 109
ATOM    109  CG1 ILE A 123       1.372   0.659  22.184  1.00 15.23     0.002 C 
ATOM    110  CD1 ILE A 123       0.266   1.671  22.352  1.00 14.67     0.005 C 
ENDBRANCH 107 109
ENDBRANCH 106 107
END_RES ILE A 123
BEGIN_RES LEU A 124
REMARK  2 active torsions:
REMARK  status: ('A' for Active; 'I' for Inactive)
REMARK   35  A    between atoms: CA   and  CB  
REMARK   36  A    between atoms: CB   and  CG  
ROOT
ATOM    111  CA  LEU A 124      -2.057  -2.686  23.524  1.00 11.86     0.177 C 
ENDROOT
BRANCH 111 112
ATOM    112  CB  LEU A 124      -2.698  -1.652  24.429  1.00 14.60     0.038 C 
BRANCH 112 113
ATOM    113  CG  LEU A 124      -2.615  -0.250  23.844  1.00 16.19    -0.020 C 
ATOM    114  CD1 LEU A 124      -4.031   0.216  23.454  1.00 22.07     0.009 C 
ATOM    115  CD2 LEU A 124      -1.974   0.676  24.847  1.00  9.12     0.009 C 
ENDBRANCH 112 113
ENDBRANCH 111 112
END_RES LEU A 124
BEGIN_RES PHE A 126
REMARK  2 active torsions:
REMARK  status: ('A' for Active; 'I' for Inactive)
REMARK   37  A    between atoms: CA   and  CB  
REMARK   38  A    between atoms: CB   and  CG  
ROOT
ATOM    116  CA  PHE A 126      -8.784  -4.792  22.233  1.00 23.15     0.180 C 
ENDROOT
BRANCH 116 117
ATOM    117  CB  PHE A 126      -9.823  -4.011  21.461  1.00 20.65     0.073 C 
BRANCH 117 118
ATOM    118  CG  PHE A 126     -10.954  -3.550  22.295  1.00 23.65    -0.056 A 
ATOM    119  CD2 PHE A 126     -12.204  -4.129  22.170  1.00 36.63     0.007 A 
ATOM    120  CE2 PHE A 126     -13.275  -3.693  22.963  1.00 36.27     0.001 A 
ATOM    121  CZ  PHE A 126     -13.085  -2.670  23.880  1.00 18.06     0.000 A 
ATOM    122  CE1 PHE A 126     -11.838  -2.092  24.008  1.00  5.50     0.001 A 
ATOM    123  CD1 PHE A 126     -10.777  -2.535  23.218  1.00 15.29     0.007 A 
ENDBRANCH 117 118
ENDBRANCH 116 117
END_RES PHE A 126
BEGIN_RES TRP A 131
REMARK  2 active torsions:
REMARK  status: ('A' for Active; 'I' for Inactive)
REMARK   39  A    between atoms: CA   and  CB  
REMARK   40  A    between atoms: CB   and  CG  
ROOT
ATOM    124  CA  TRP A 131      -8.096  -3.335  26.542  1.00 14.52     0.181 C 
ENDROOT
BRANCH 124 125
ATOM    125  CB  TRP A 131      -7.651  -1.877  26.607  1.00 13.06     0.075 C 
BRANCH 125 126
ATOM    126  CG  TRP A 131      -8.040  -1.054  25.399  1.00 16.97    -0.028 A 
ATOM    127  CD2 TRP A 131      -9.112  -0.111  25.320  1.00 11.34    -0.002 A 
ATOM    128  CE2 TRP A 131      -9.108   0.425  24.017  1.00  5.87     0.042 A 
ATOM    129  CE3 TRP A 131     -10.077   0.332  26.230  1.00  3.80     0.014 A 
ATOM    130  CZ2 TRP A 131     -10.032   1.386  23.602  1.00  1.35     0.030 A 
ATOM    131  NE1 TRP A 131      -8.082  -0.166  23.332  1.00 13.90    -0.365 N 
ATOM    132  CH2 TRP A 131     -10.968   1.803  24.516  1.00  1.00     0.002 A 
ATOM    133  CZ3 TRP A 131     -10.997   1.282  25.824  1.00  1.00     0.001 A 
ATOM    134  CD1 TRP A 131      -7.444  -1.053  24.167  1.00 17.22     0.096 A 
ATOM    135  H07 TRP A 131      -7.834   0.019  22.371  1.00 13.90     0.165 HD
ENDBRANCH 125 126
ENDBRANCH 124 125
END_RES TRP A 131
BEGIN_RES LEU A 148
REMARK  2 active torsions:
REMARK  status: ('A' for Active; 'I' for Inactive)
REMARK   41  A    between atoms: CA   and  CB  
REMARK   42  A    between atoms: CB   and  CG  
ROOT
ATOM    136  CA  LEU A 148      -9.018   3.259  29.295  1.00 16.99     0.177 C 
ENDROOT
BRANCH 136 137
ATOM    137  CB  LEU A 148      -8.166   2.574  28.236  1.00  6.39     0.038 C 
BRANCH 137 138
ATOM    138  CG  LEU A 148      -7.926   3.220  26.887  1.00  1.00    -0.020 C 
ATOM    139  CD2 LEU A 148      -6.476   3.576  26.731  1.00  1.00     0.009 C 
ATOM    140  CD1 LEU A 148      -8.794   4.462  26.793  1.00  2.71     0.009 C 
ENDBRANCH 137 138
ENDBRANCH 136 137
END_RES LEU A 148
BEGIN_RES THR A 154
REMARK  2 active torsions:
REMARK  status: ('A' for Active; 'I' for Inactive)
REMARK   43  A    between atoms: CA   and  CB  
REMARK   44  A    between atoms: CB   and  OG1 
ROOT
ATOM    141  CA  THR A 154     -15.990   3.959  24.426  1.00 20.45     0.205 C 
ENDROOT
BRANCH 141 142
ATOM    142  CB  THR A 154     -14.777   4.829  24.694  1.00 16.79     0.146 C 
ATOM    143  CG2 THR A 154     -13.610   4.378  23.837  1.00 20.24     0.042 C 
BRANCH 142 144
ATOM    144  OG1 THR A 154     -15.097   6.186  24.363  1.00 18.84    -0.393 OA
ATOM    145  H06 THR A 154     -14.896   6.347  23.439  1.00 18.84     0.210 HD
ENDBRANCH 142 144
ENDBRANCH 141 142
END_RES THR A 154
BEGIN_RES VAL A 158
REMARK  1 active torsions:
REMARK  status: ('A' for Active; 'I' for Inactive)
REMARK   45  A    between atoms: CA   and  CB  
ROOT
ATOM    146  CA  VAL A 158     -15.487  -0.189  19.892  1.00 15.49     0.180 C 
ENDROOT
BRANCH 146 147
ATOM    147  CB  VAL A 158     -14.291  -0.273  20.822  1.00  6.52     0.009 C 
ATOM    148  CG1 VAL A 158     -13.262  -1.244  20.291  1.00  1.00     0.012 C 
ATOM    149  CG2 VAL A 158     -13.701   1.095  20.970  1.00  5.99     0.012 C 
ENDBRANCH 146 147
END_RES VAL A 158
BEGIN_RES LEU A 161
REMARK  2 active torsions:
REMARK  status: ('A' for Active; 'I' for Inactive)
REMARK   46  A    between atoms: CA   and  CB  
REMARK   47  A    between atoms: CB   and  CG  
ROOT
ATOM    150  CA  LEU A 161     -18.031  -1.858  15.935  1.00 13.31     0.177 C 
ENDROOT
BRANCH 150 151
ATOM    151  CB  LEU A 161     -17.046  -0.706  16.001  1.00 14.13     0.038 C 
BRANCH 151 152
ATOM    152  CG  LEU A 161     -17.202   0.377  14.940  1.00 19.39    -0.020 C 
ATOM    153  CD2 LEU A 161     -15.977   0.426  14.060  1.00 27.75     0.009 C 
ATOM    154  CD1 LEU A 161     -17.399   1.703  15.624  1.00 18.59     0.009 C 
ENDBRANCH 151 152
ENDBRANCH 150 151
END_RES LEU A 161
BEGIN_RES GLN A 168
REMARK  3 active torsions:
REMARK  status: ('A' for Active; 'I' for Inactive)
REMARK   48  A    between atoms: CA   and  CB  
REMARK   49  A    between atoms: CB   and  CG  
REMARK   50  A    between atoms: CG   and  CD  
REMARK       I    between atoms: CD   and  NE2 
ROOT
ATOM    155  CA  GLN A 168     -22.035  -6.020   8.155  1.00 30.94     0.177 C 
ENDROOT
BRANCH 155 156
ATOM    156  CB  GLN A 168     -23.054  -5.218   8.946  1.00 41.76     0.044 C 
BRANCH 156 157
ATOM    157  CG  GLN A 168     -24.343  -5.945   9.221  1.00 61.20     0.105 C 
BRANCH 157 158
ATOM    158  CD  GLN A 168     -24.917  -5.584  10.577  1.00 75.49     0.215 C 
ATOM    159  NE2 GLN A 168     -24.152  -5.863  11.634  1.00 85.00    -0.370 N 
ATOM    160  H06 GLN A 168     -24.481  -5.648  12.565  1.00 85.00     0.159 HD
ATOM    161  H07 GLN A 168     -23.245  -6.288  11.503  1.00 85.00     0.159 HD
ATOM    162  OE1 GLN A 168     -26.038  -5.066  10.679  1.00 73.64    -0.274 OA
ENDBRANCH 157 158
ENDBRANCH 156 157
ENDBRANCH 155 156
END_RES GLN A 168
ENDMDL
MODEL 9
REMARK VINA RESULT:      -6.5      1.438      3.174
REMARK  Name = human_CD1d_Tween20_pred.rank_0
REMARK  75 active torsions:
REMARK  status: ('A' for Active; 'I' for Inactive)
REMARK    1  A    between atoms: C_1  and  C_3
REMARK    2  A    between atoms: C_3  and  O_4
REMARK    3  A    between atoms: O_4  and  C_5
REMARK    4  A    between atoms: C_5  and  C_7
REMARK    5  A    between atoms: O_6  and  C_7
REMARK    6  A    between atoms: O_6  and  C_9
REMARK    7  A    between atoms: O_8  and  C_11
REMARK    8  A    between atoms: O_8  and  C_13
REMARK    9  A    between atoms: C_9  and  C_11
REMARK   10  A    between atoms: O_10  and  C_15
REMARK   11  A    between atoms: O_10  and  C_17
REMARK   12  A    between atoms: O_12  and  C_19
REMARK   13  A    between atoms: O_12  and  C_21
REMARK   14  A    between atoms: C_13  and  C_15
REMARK   15  A    between atoms: O_14  and  C_23
REMARK   16  A    between atoms: O_14  and  C_25
REMARK   17  A    between atoms: O_16  and  C_27
REMARK   18  A    between atoms: O_16  and  C_29
REMARK   19  A    between atoms: C_17  and  C_19
REMARK   20  A    between atoms: O_18  and  C_31
REMARK   21  A    between atoms: O_18  and  C_33
REMARK   22  A    between atoms: O_20  and  C_35
REMARK   23  A    between atoms: O_20  and  C_37
REMARK   24  A    between atoms: C_21  and  C_23
REMARK   25  A    between atoms: C_21  and  C_61
REMARK   26  A    between atoms: O_22  and  C_39
REMARK   27  A    between atoms: O_22  and  C_41
REMARK   28  A    between atoms: O_24  and  C_43
REMARK   29  A    between atoms: O_24  and  C_45
REMARK   30  A    between atoms: C_25  and  C_27
REMARK   31  A    between atoms: O_28  and  C_63
REMARK   32  A    between atoms: O_28  and  C_64
REMARK   33  A    between atoms: C_29  and  C_31
REMARK   34  A    between atoms: O_30  and  C_65
REMARK   35  A    between atoms: O_30  and  C_66
REMARK   36  A    between atoms: O_32  and  C_67
REMARK   37  A    between atoms: O_32  and  C_68
REMARK   38  A    between atoms: C_33  and  C_35
REMARK   39  A    between atoms: O_34  and  C_69
REMARK   40  A    between atoms: O_34  and  C_70
REMARK   41  A    between atoms: O_36  and  C_71
REMARK   42  A    between atoms: O_36  and  C_72
REMARK   43  A    between atoms: C_37  and  C_39
REMARK   44  A    between atoms: O_40  and  C_74
REMARK   45  A    between atoms: O_40  and  C_75
REMARK   46  A    between atoms: C_41  and  C_43
REMARK   47  A    between atoms: O_42  and  C_76
REMARK   48  A    between atoms: O_42  and  C_77
REMARK   49  A    between atoms: O_44  and  C_78
REMARK   50  A    between atoms: O_44  and  C_79
REMARK   51  A    between atoms: C_45  and  C_47
REMARK   52  A    between atoms: O_46  and  C_80
REMARK   53  A    between atoms: O_46  and  C_81
REMARK   54  A    between atoms: C_47  and  C_49
REMARK   55  A    between atoms: O_48  and  C_82
REMARK   56  A    between atoms: O_48  and  C_83
REMARK   57  A    between atoms: C_49  and  C_51
REMARK   58  A    between atoms: C_51  and  C_53
REMARK   59  A    between atoms: C_53  and  C_54
REMARK   60  A    between atoms: C_54  and  C_55
REMARK   61  A    between atoms: C_55  and  C_56
REMARK   62  A    between atoms: C_56  and  C_57
REMARK   63  A    between atoms: C_57  and  C_58
REMARK   64  A    between atoms: C_58  and  C_59
REMARK   65  A    between atoms: C_61  and  C_62
REMARK   66  A    between atoms: C_64  and  C_65
REMARK   67  A    between atoms: C_66  and  C_67
REMARK   68  A    between atoms: C_68  and  C_69
REMARK   69  A    between atoms: C_70  and  C_71
REMARK   70  A    between atoms: C_72  and  C_73
REMARK   71  A    between atoms: C_75  and  C_76
REMARK   72  A    between atoms: C_77  and  C_78
REMARK   73  A    between atoms: C_79  and  C_80
REMARK   74  A    between atoms: C_81  and  C_82
REMARK   75  A    between atoms: C_83  and  C_84
REMARK                            x       y       z     vdW  Elec       q    Type
REMARK                         _______ _______ _______ _____ _____    ______ ____
ROOT
ATOM      1  C   UNL     1      -9.094   2.910  12.606  0.00  0.00    +0.000 C 
ENDROOT
BRANCH   1   2
ATOM      2  C   UNL     1      -9.007   3.710  13.966  0.00  0.00    +0.000 C 
BRANCH   2   4
ATOM      3  O   UNL     1      -9.569   6.145  13.932  0.00  0.00    +0.000 OA
ATOM      4  C   UNL     1     -10.108   4.728  14.046  0.00  0.00    +0.000 C 
ATOM      5  C   UNL     1     -10.656   4.706  15.474  0.00  0.00    +0.000 C 
ATOM      6  C   UNL     1     -10.287   6.111  15.952  0.00  0.00    +0.000 C 
ATOM      7  C   UNL     1     -10.179   7.007  14.752  0.00  0.00    +0.000 C 
BRANCH   6   8
ATOM      8  O   UNL     1      -9.082   5.949  16.700  0.00  0.00    +0.000 OA
BRANCH   8   9
ATOM      9  C   UNL     1      -9.260   5.930  18.104  0.00  0.00    +0.000 C 
BRANCH   9  10
ATOM     10  C   UNL     1     -10.411   6.820  18.458  0.00  0.00    +0.000 C 
BRANCH  10  11
ATOM     11  O   UNL     1     -10.378   7.112  19.835  0.00  0.00    +0.000 OA
BRANCH  11  12
ATOM     12  C   UNL     1     -11.247   8.169  20.181  0.00  0.00    +0.000 C 
BRANCH  12  13
ATOM     13  C   UNL     1     -11.180   8.374  21.680  0.00  0.00    +0.000 C 
BRANCH  13  14
ATOM     14  O   UNL     1     -12.446   8.282  22.240  0.00  0.00    +0.000 OA
BRANCH  14  15
ATOM     15  C   UNL     1     -12.458   8.148  23.605  0.00  0.00    +0.000 C 
BRANCH  15  16
ATOM     16  C   UNL     1     -11.516   7.060  24.012  0.00  0.00    +0.000 C 
BRANCH  16  17
ATOM     17  O   UNL     1     -11.351   7.025  25.417  0.00  0.00    +0.000 OA
BRANCH  17  18
ATOM     18  C   UNL     1     -10.836   5.777  25.854  0.00  0.00    +0.000 C 
BRANCH  18  19
ATOM     19  C   UNL     1     -10.332   5.885  27.274  0.00  0.00    +0.000 C 
BRANCH  19  20
ATOM     20  O   UNL     1      -9.091   6.544  27.277  0.00  0.00    +0.000 OA
BRANCH  20  21
ATOM     21  C   UNL     1      -8.687   6.802  28.613  0.00  0.00    +0.000 C 
BRANCH  21  23
ATOM     22  O   UNL     1      -9.186   9.118  28.122  0.00  0.00    +0.000 OA
ATOM     23  C   UNL     1      -8.193   8.198  28.722  0.00  0.00    +0.000 C 
ENDBRANCH  21  23
ENDBRANCH  20  21
ENDBRANCH  19  20
ENDBRANCH  18  19
ENDBRANCH  17  18
ENDBRANCH  16  17
ENDBRANCH  15  16
ENDBRANCH  14  15
ENDBRANCH  13  14
ENDBRANCH  12  13
ENDBRANCH  11  12
ENDBRANCH  10  11
ENDBRANCH   9  10
ENDBRANCH   8   9
ENDBRANCH   6   8
BRANCH   5  24
ATOM     24  O   UNL     1     -12.053   4.614  15.419  0.00  0.00    +0.000 OA
BRANCH  24  25
ATOM     25  C   UNL     1     -12.483   3.494  14.720  0.00  0.00    +0.000 C 
BRANCH  25  26
ATOM     26  C   UNL     1     -14.011   3.331  14.901  0.00  0.00    +0.000 C 
BRANCH  26  27
ATOM     27  O   UNL     1     -14.590   3.160  13.613  0.00  0.00    +0.000 OA
BRANCH  27  28
ATOM     28  C   UNL     1     -15.477   4.178  13.332  0.00  0.00    +0.000 C 
BRANCH  28  29
ATOM     29  C   UNL     1     -16.895   3.605  13.359  0.00  0.00    +0.000 C 
BRANCH  29  30
ATOM     30  O   UNL     1     -16.931   2.517  12.502  0.00  0.00    +0.000 OA
BRANCH  30  31
ATOM     31  C   UNL     1     -18.248   2.133  12.160  0.00  0.00    +0.000 C 
BRANCH  31  32
ATOM     32  C   UNL     1     -19.196   3.021  12.861  0.00  0.00    +0.000 C 
BRANCH  32  33
ATOM     33  O   UNL     1     -20.506   2.595  12.547  0.00  0.00    +0.000 OA
BRANCH  33  34
ATOM     34  C   UNL     1     -21.419   3.596  12.839  0.00  0.00    +0.000 C 
BRANCH  34  35
ATOM     35  C   UNL     1     -22.634   3.432  11.928  0.00  0.00    +0.000 C 
BRANCH  35  36
ATOM     36  O   UNL     1     -23.038   2.071  11.963  0.00  0.00    +0.000 OA
BRANCH  36  37
ATOM     37  C   UNL     1     -23.817   1.772  10.846  0.00  0.00    +0.000 C 
BRANCH  37  39
ATOM     38  O   UNL     1     -25.209   0.149   9.839  0.00  0.00    +0.000 OA
ATOM     39  C   UNL     1     -24.487   0.434  11.019  0.00  0.00    +0.000 C 
ENDBRANCH  37  39
ENDBRANCH  36  37
ENDBRANCH  35  36
ENDBRANCH  34  35
ENDBRANCH  33  34
ENDBRANCH  32  33
ENDBRANCH  31  32
ENDBRANCH  30  31
ENDBRANCH  29  30
ENDBRANCH  28  29
ENDBRANCH  27  28
ENDBRANCH  26  27
ENDBRANCH  25  26
ENDBRANCH  24  25
ENDBRANCH   5  24
ENDBRANCH   2   4
ENDBRANCH   1   2
BRANCH   1  40
ATOM     40  O   UNL     1      -8.493   3.619  11.518  0.00  0.00    +0.000 OA
BRANCH  40  41
ATOM     41  C   UNL     1      -9.353   4.463  10.785  0.00  0.00    +0.000 C 
BRANCH  41  42
ATOM     42  C   UNL     1      -9.144   4.305   9.305  0.00  0.00    +0.000 C 
BRANCH  42  43
ATOM     43  O   UNL     1      -9.105   5.528   8.662  0.00  0.00    +0.000 OA
BRANCH  43  44
ATOM     44  C   UNL     1     -10.055   5.654   7.662  0.00  0.00    +0.000 C 
BRANCH  44  45
ATOM     45  C   UNL     1     -10.734   4.342   7.431  0.00  0.00    +0.000 C 
BRANCH  45  46
ATOM     46  O   UNL     1     -11.794   4.446   6.577  0.00  0.00    +0.000 OA
BRANCH  46  47
ATOM     47  C   UNL     1     -12.950   3.740   7.026  0.00  0.00    +0.000 C 
BRANCH  47  48
ATOM     48  C   UNL     1     -14.139   4.217   6.277  0.00  0.00    +0.000 C 
BRANCH  48  49
ATOM     49  O   UNL     1     -15.005   3.134   6.075  0.00  0.00    +0.000 OA
BRANCH  49  50
ATOM     50  C   UNL     1     -15.194   2.396   7.271  0.00  0.00    +0.000 C 
BRANCH  50  51
ATOM     51  C   UNL     1     -16.636   2.354   7.573  0.00  0.00    +0.000 C 
BRANCH  51  52
ATOM     52  O   UNL     1     -16.816   1.489   8.645  0.00  0.00    +0.000 OA
BRANCH  52  53
ATOM     53  C   UNL     1     -15.627   0.773   8.965  0.00  0.00    +0.000 C 
BRANCH  53  54
ATOM     54  C   UNL     1     -15.854  -0.235  10.070  0.00  0.00    +0.000 C 
ATOM     55  O   UNL     1     -14.778  -1.168  10.101  0.00  0.00    +0.000 OA
ENDBRANCH  53  54
ENDBRANCH  52  53
ENDBRANCH  51  52
ENDBRANCH  50  51
ENDBRANCH  49  50
ENDBRANCH  48  49
ENDBRANCH  47  48
ENDBRANCH  46  47
ENDBRANCH  45  46
ENDBRANCH  44  45
ENDBRANCH  43  44
ENDBRANCH  42  43
ENDBRANCH  41  42
ENDBRANCH  40  41
ENDBRANCH   1  40
BRANCH   1  56
ATOM     56  C   UNL     1     -10.511   2.671  12.224  0.00  0.00    +0.000 C 
BRANCH  56  57
ATOM     57  O   UNL     1     -10.742   1.350  12.540  0.00  0.00    +0.000 OA
BRANCH  57  58
ATOM     58  C   UNL     1     -12.142   1.025  12.431  0.00  0.00    +0.000 C 
BRANCH  58  59
ATOM     59  C   UNL     1     -12.308  -0.478  12.252  0.00  0.00    +0.000 C 
BRANCH  59  60
ATOM     60  O   UNL     1     -12.780  -1.068  13.433  0.00  0.00    +0.000 OA
BRANCH  60  61
ATOM     61  C   UNL     1     -13.167  -0.126  14.419  0.00  0.00    +0.000 C 
BRANCH  61  62
ATOM     62  C   UNL     1     -12.728  -0.520  15.825  0.00  0.00    +0.000 C 
BRANCH  62  63
ATOM     63  O   UNL     1     -13.181   0.450  16.745  0.00  0.00    +0.000 OA
BRANCH  63  64
ATOM     64  C   UNL     1     -12.107   1.077  17.405  0.00  0.00    +0.000 C 
BRANCH  64  65
ATOM     65  C   UNL     1     -12.633   2.277  18.177  0.00  0.00    +0.000 C 
BRANCH  65  66
ATOM     66  O   UNL     1     -11.519   3.074  18.565  0.00  0.00    +0.000 OA
BRANCH  66  67
ATOM     67  C   UNL     1     -11.718   3.724  19.770  0.00  0.00    +0.000 C 
BRANCH  67  68
ATOM     68  C   UNL     1     -10.506   3.513  20.649  0.00  0.00    +0.000 C 
BRANCH  68  69
ATOM     69  O   UNL     1     -10.607   4.420  21.715  0.00  0.00    +0.000 OA
BRANCH  69  70
ATOM     70  C   UNL     1      -9.383   4.750  22.256  0.00  0.00    +0.000 C 
BRANCH  70  71
ATOM     71  C   UNL     1      -8.279   4.090  21.452  0.00  0.00    +0.000 C 
BRANCH  71  72
ATOM     72  O   UNL     1      -7.084   4.485  22.067  0.00  0.00    +0.000 OA
BRANCH  72  74
ATOM     73  O   UNL     1      -6.646   2.330  22.315  0.00  0.00    +0.000 OA
ATOM     74  C   UNL     1      -6.245   3.447  22.302  0.00  0.00    +0.000 C 
BRANCH  74  75
ATOM     75  C   UNL     1      -4.836   3.806  22.529  0.00  0.00    +0.000 C 
BRANCH  75  76
ATOM     76  C   UNL     1      -4.584   3.873  24.046  0.00  0.00    +0.000 C 
BRANCH  76  77
ATOM     77  C   UNL     1      -3.352   4.714  24.320  0.00  0.00    +0.000 C 
BRANCH  77  78
ATOM     78  C   UNL     1      -2.770   4.328  25.671  0.00  0.00    +0.000 C 
BRANCH  78  79
ATOM     79  C   UNL     1      -1.423   4.992  25.811  0.00  0.00    +0.000 C 
BRANCH  79  80
ATOM     80  C   UNL     1      -0.390   4.081  25.139  0.00  0.00    +0.000 C 
BRANCH  80  81
ATOM     81  C   UNL     1       0.364   4.883  24.105  0.00  0.00    +0.000 C 
BRANCH  81  82
ATOM     82  C   UNL     1       0.862   6.178  24.739  0.00  0.00    +0.000 C 
BRANCH  82  83
ATOM     83  C   UNL     1       0.465   7.386  23.903  0.00  0.00    +0.000 C 
BRANCH  83  84
ATOM     84  C   UNL     1       0.499   8.660  24.693  0.00  0.00    +0.000 C 
ATOM     85  C   UNL     1       1.736   9.455  24.402  0.00  0.00    +0.000 C 
ENDBRANCH  83  84
ENDBRANCH  82  83
ENDBRANCH  81  82
ENDBRANCH  80  81
ENDBRANCH  79  80
ENDBRANCH  78  79
ENDBRANCH  77  78
ENDBRANCH  76  77
ENDBRANCH  75  76
ENDBRANCH  74  75
ENDBRANCH  72  74
ENDBRANCH  71  72
ENDBRANCH  70  71
ENDBRANCH  69  70
ENDBRANCH  68  69
ENDBRANCH  67  68
ENDBRANCH  66  67
ENDBRANCH  65  66
ENDBRANCH  64  65
ENDBRANCH  63  64
ENDBRANCH  62  63
ENDBRANCH  61  62
ENDBRANCH  60  61
ENDBRANCH  59  60
ENDBRANCH  58  59
ENDBRANCH  57  58
ENDBRANCH  56  57
ENDBRANCH   1  56
TORSDOF 75
BEGIN_RES LEU A  10
REMARK  2 active torsions:
REMARK  status: ('A' for Active; 'I' for Inactive)
REMARK    1  A    between atoms: CA   and  CB  
REMARK    2  A    between atoms: CB   and  CG  
ROOT
ATOM      1  CA  LEU A  10     -10.775  -4.871   5.898  1.00 25.14     0.177 C 
ENDROOT
BRANCH   1   2
ATOM      2  CB  LEU A  10     -12.191  -4.387   6.226  1.00 17.87     0.038 C 
BRANCH   2   3
ATOM      3  CG  LEU A  10     -12.361  -2.867   6.204  1.00 24.95    -0.020 C 
ATOM      4  CD2 LEU A  10     -13.603  -2.505   6.946  1.00 26.38     0.009 C 
ATOM      5  CD1 LEU A  10     -12.420  -2.347   4.778  1.00 28.12     0.009 C 
ENDBRANCH   2   3
ENDBRANCH   1   2
END_RES LEU A  10
BEGIN_RES CYS A  12
REMARK  2 active torsions:
REMARK  status: ('A' for Active; 'I' for Inactive)
REMARK    3  A    between atoms: CA   and  CB  
REMARK    4  A    between atoms: CB   and  SG  
ROOT
ATOM      6  CA  CYS A  12      -8.555   0.470   8.750  1.00 23.16     0.185 C 
ENDROOT
BRANCH   6   7
ATOM      7  CB  CYS A  12      -9.828   0.763   9.555  1.00 20.43     0.105 C 
BRANCH   7   8
ATOM      8  SG  CYS A  12     -11.394   0.680   8.633  1.00 24.64    -0.180 SA
ATOM      9  H04 CYS A  12     -11.913   1.910   8.522  1.00 24.64     0.101 HD
ENDBRANCH   7   8
ENDBRANCH   6   7
END_RES CYS A  12
BEGIN_RES GLN A  14
REMARK  3 active torsions:
REMARK  status: ('A' for Active; 'I' for Inactive)
REMARK    5  A    between atoms: CA   and  CB  
REMARK    6  A    between atoms: CB   and  CG  
REMARK    7  A    between atoms: CG   and  CD  
REMARK       I    between atoms: CD   and  NE2 
ROOT
ATOM     10  CA  GLN A  14      -4.645   5.402  11.377  1.00 10.43     0.177 C 
ENDROOT
BRANCH  10  11
ATOM     11  CB  GLN A  14      -5.541   5.549  12.608  1.00 14.45     0.044 C 
BRANCH  11  12
ATOM     12  CG  GLN A  14      -6.615   6.603  12.467  1.00 13.74     0.105 C 
BRANCH  12  13
ATOM     13  CD  GLN A  14      -6.158   7.960  12.946  1.00 16.29     0.215 C 
ATOM     14  NE2 GLN A  14      -5.894   8.852  12.016  1.00  8.57    -0.370 N 
ATOM     15  H06 GLN A  14      -5.586   9.777  12.276  1.00  8.57     0.159 HD
ATOM     16  H07 GLN A  14      -5.999   8.611  11.040  1.00  8.57     0.159 HD
ATOM     17  OE1 GLN A  14      -6.048   8.204  14.137  1.00 23.55    -0.274 OA
ENDBRANCH  12  13
ENDBRANCH  11  12
ENDBRANCH  10  11
END_RES GLN A  14
BEGIN_RES SER A  16
REMARK  2 active torsions:
REMARK  status: ('A' for Active; 'I' for Inactive)
REMARK    8  A    between atoms: CA   and  CB  
REMARK    9  A    between atoms: CB   and  OG  
ROOT
ATOM     18  CA  SER A  16      -1.305  10.019  14.282  1.00  2.34     0.200 C 
ENDROOT
BRANCH  18  19
ATOM     19  CB  SER A  16      -2.242   9.935  15.479  1.00  3.12     0.199 C 
BRANCH  19  20
ATOM     20  OG  SER A  16      -2.493  11.229  16.000  1.00  1.00    -0.398 OA
ATOM     21  H04 SER A  16      -3.086  11.161  16.752  1.00  1.00     0.209 HD
ENDBRANCH  19  20
ENDBRANCH  18  19
END_RES SER A  16
BEGIN_RES LEU A  32
REMARK  2 active torsions:
REMARK  status: ('A' for Active; 'I' for Inactive)
REMARK   10  A    between atoms: CA   and  CB  
REMARK   11  A    between atoms: CB   and  CG  
ROOT
ATOM     22  CA  LEU A  32     -10.272  -4.106   1.587  1.00 16.16     0.177 C 
ENDROOT
BRANCH  22  23
ATOM     23  CB  LEU A  32     -11.613  -3.858   0.880  1.00 12.35     0.038 C 
BRANCH  23  24
ATOM     24  CG  LEU A  32     -12.660  -4.931   1.242  1.00  9.77    -0.020 C 
ATOM     25  CD1 LEU A  32     -12.400  -6.201   0.469  1.00  4.35     0.009 C 
ATOM     26  CD2 LEU A  32     -12.641  -5.222   2.720  1.00 10.60     0.009 C 
ENDBRANCH  23  24
ENDBRANCH  22  23
END_RES LEU A  32
BEGIN_RES HIS A  38
REMARK  2 active torsions:
REMARK  status: ('A' for Active; 'I' for Inactive)
REMARK   12  A    between atoms: CA   and  CB  
REMARK   13  A    between atoms: CB   and  CG  
ROOT
ATOM     27  CA  HIS A  38     -10.959   4.941   1.621  1.00 16.94     0.182 C 
ENDROOT
BRANCH  27  28
ATOM     28  CB  HIS A  38     -11.810   4.840   2.881  1.00 15.47     0.095 C 
BRANCH  28  29
ATOM     29  CG  HIS A  38     -12.845   3.763   2.826  1.00 18.62     0.053 A 
ATOM     30  CD2 HIS A  38     -12.898   2.551   3.427  1.00 15.06     0.116 A 
ATOM     31  NE2 HIS A  38     -14.086   1.972   3.060  1.00 18.12    -0.359 N 
ATOM     32  CE1 HIS A  38     -14.739   2.796   2.263  1.00 14.78     0.207 A 
ATOM     33  H06 HIS A  38     -14.409   1.061   3.354  1.00 18.12     0.166 HD
ATOM     34  ND1 HIS A  38     -14.012   3.884   2.104  1.00 16.58    -0.247 NA
ENDBRANCH  28  29
ENDBRANCH  27  28
END_RES HIS A  38
BEGIN_RES TRP A  63
REMARK  2 active torsions:
REMARK  status: ('A' for Active; 'I' for Inactive)
REMARK   14  A    between atoms: CA   and  CB  
REMARK   15  A    between atoms: CB   and  CG  
ROOT
ATOM     35  CA  TRP A  63     -22.437   6.257   6.543  1.00 27.04     0.181 C 
ENDROOT
BRANCH  35  36
ATOM     36  CB  TRP A  63     -22.360   6.642   5.068  1.00 31.37     0.075 C 
BRANCH  36  37
ATOM     37  CG  TRP A  63     -20.955   6.851   4.545  1.00 34.37    -0.028 A 
ATOM     38  CD2 TRP A  63     -19.917   5.868   4.427  1.00 33.79    -0.002 A 
ATOM     39  CE3 TRP A  63     -19.814   4.517   4.768  1.00 32.99     0.014 A 
ATOM     40  CE2 TRP A  63     -18.808   6.501   3.825  1.00 35.84     0.042 A 
ATOM     41  CZ3 TRP A  63     -18.627   3.851   4.503  1.00 32.93     0.001 A 
ATOM     42  CH2 TRP A  63     -17.541   4.509   3.904  1.00 39.24     0.002 A 
ATOM     43  CZ2 TRP A  63     -17.613   5.832   3.557  1.00 37.99     0.030 A 
ATOM     44  NE1 TRP A  63     -19.159   7.803   3.592  1.00 37.98    -0.365 N 
ATOM     45  H06 TRP A  63     -18.568   8.504   3.168  1.00 37.98     0.165 HD
ATOM     46  CD1 TRP A  63     -20.446   8.002   4.029  1.00 38.16     0.096 A 
ENDBRANCH  36  37
ENDBRANCH  35  36
END_RES TRP A  63
BEGIN_RES LEU A  66
REMARK  2 active torsions:
REMARK  status: ('A' for Active; 'I' for Inactive)
REMARK   16  A    between atoms: CA   and  CB  
REMARK   17  A    between atoms: CB   and  CG  
ROOT
ATOM     47  CA  LEU A  66     -20.004   6.489  11.120  1.00 10.90     0.177 C 
ENDROOT
BRANCH  47  48
ATOM     48  CB  LEU A  66     -19.626   5.453  10.069  1.00 13.57     0.038 C 
BRANCH  48  49
ATOM     49  CG  LEU A  66     -18.313   5.666   9.317  1.00  8.73    -0.020 C 
ATOM     50  CD1 LEU A  66     -17.208   4.849   9.935  1.00 14.23     0.009 C 
ATOM     51  CD2 LEU A  66     -18.514   5.260   7.880  1.00  1.92     0.009 C 
ENDBRANCH  48  49
ENDBRANCH  47  48
END_RES LEU A  66
BEGIN_RES PHE A  70
REMARK  2 active torsions:
REMARK  status: ('A' for Active; 'I' for Inactive)
REMARK   18  A    between atoms: CA   and  CB  
REMARK   19  A    between atoms: CB   and  CG  
ROOT
ATOM     52  CA  PHE A  70     -14.974   9.434  13.165  1.00  8.78     0.180 C 
ENDROOT
BRANCH  52  53
ATOM     53  CB  PHE A  70     -14.707   9.132  11.681  1.00  6.33     0.073 C 
BRANCH  53  54
ATOM     54  CG  PHE A  70     -14.014   7.816  11.454  1.00  3.42    -0.056 A 
ATOM     55  CD1 PHE A  70     -13.421   7.129  12.502  1.00 13.88     0.007 A 
ATOM     56  CE1 PHE A  70     -12.734   5.923  12.275  1.00 12.71     0.001 A 
ATOM     57  CZ  PHE A  70     -12.641   5.401  10.984  1.00  4.21     0.000 A 
ATOM     58  CE2 PHE A  70     -13.230   6.076   9.931  1.00  2.83     0.001 A 
ATOM     59  CD2 PHE A  70     -13.914   7.281  10.169  1.00  1.00     0.007 A 
ENDBRANCH  53  54
ENDBRANCH  52  53
END_RES PHE A  70
BEGIN_RES TYR A  73
REMARK  3 active torsions:
REMARK  status: ('A' for Active; 'I' for Inactive)
REMARK   20  A    between atoms: CA   and  CB  
REMARK   21  A    between atoms: CB   and  CG  
REMARK   22  A    between atoms: CZ   and  OH  
ROOT
ATOM     60  CA  TYR A  73     -13.212  10.166  17.260  1.00 12.17     0.180 C 
ENDROOT
BRANCH  60  61
ATOM     61  CB  TYR A  73     -13.301   8.846  16.517  1.00 12.84     0.073 C 
BRANCH  61  62
ATOM     62  CG  TYR A  73     -13.818   7.734  17.362  1.00 15.89    -0.056 A 
ATOM     63  CD1 TYR A  73     -13.955   6.461  16.856  1.00 16.00     0.010 A 
ATOM     64  CE1 TYR A  73     -14.467   5.425  17.636  1.00 13.55     0.037 A 
ATOM     65  CZ  TYR A  73     -14.844   5.682  18.939  1.00 18.13     0.065 A 
ATOM     66  CE2 TYR A  73     -14.717   6.945  19.469  1.00 15.89     0.037 A 
ATOM     67  CD2 TYR A  73     -14.203   7.965  18.678  1.00 21.86     0.010 A 
BRANCH  65  68
ATOM     68  OH  TYR A  73     -15.346   4.676  19.727  1.00 12.12    -0.361 OA
ATOM     69  H08 TYR A  73     -15.198   4.889  20.652  1.00 12.12     0.217 HD
ENDBRANCH  65  68
ENDBRANCH  61  62
ENDBRANCH  60  61
END_RES TYR A  73
BEGIN_RES PHE A  77
REMARK  2 active torsions:
REMARK  status: ('A' for Active; 'I' for Inactive)
REMARK   23  A    between atoms: CA   and  CB  
REMARK   24  A    between atoms: CB   and  CG  
ROOT
ATOM     70  CA  PHE A  77      -8.400  10.581  20.110  1.00 17.17     0.180 C 
ENDROOT
BRANCH  70  71
ATOM     71  CB  PHE A  77      -8.228   9.750  18.851  1.00 10.44     0.073 C 
BRANCH  71  72
ATOM     72  CG  PHE A  77      -7.081   8.790  18.914  1.00  6.07    -0.056 A 
ATOM     73  CD2 PHE A  77      -6.964   7.909  19.965  1.00  9.61     0.007 A 
ATOM     74  CE2 PHE A  77      -5.903   7.013  20.031  1.00  1.00     0.001 A 
ATOM     75  CZ  PHE A  77      -4.948   6.998  19.028  1.00  1.92     0.000 A 
ATOM     76  CE1 PHE A  77      -5.053   7.871  17.969  1.00  9.25     0.001 A 
ATOM     77  CD1 PHE A  77      -6.121   8.766  17.917  1.00  9.63     0.007 A 
ENDBRANCH  71  72
ENDBRANCH  70  71
END_RES PHE A  77
BEGIN_RES LEU A  96
REMARK  2 active torsions:
REMARK  status: ('A' for Active; 'I' for Inactive)
REMARK   25  A    between atoms: CA   and  CB  
REMARK   26  A    between atoms: CB   and  CG  
ROOT
ATOM     78  CA  LEU A  96       0.717   6.481  17.359  1.00 16.08     0.177 C 
ENDROOT
BRANCH  78  79
ATOM     79  CB  LEU A  96      -0.370   7.101  18.230  1.00 18.83     0.038 C 
BRANCH  79  80
ATOM     80  CG  LEU A  96      -0.146   6.942  19.734  1.00 19.03    -0.020 C 
ATOM     81  CD1 LEU A  96       0.438   5.573  19.998  1.00 28.17     0.009 C 
ATOM     82  CD2 LEU A  96       0.827   7.983  20.235  1.00 22.01     0.009 C 
ENDBRANCH  79  80
ENDBRANCH  78  79
END_RES LEU A  96
BEGIN_RES VAL A  98
REMARK  1 active torsions:
REMARK  status: ('A' for Active; 'I' for Inactive)
REMARK   27  A    between atoms: CA   and  CB  
ROOT
ATOM     83  CA  VAL A  98      -3.928   2.082  14.897  1.00 19.83     0.180 C 
ENDROOT
BRANCH  83  84
ATOM     84  CB  VAL A  98      -5.203   2.807  15.281  1.00 17.87     0.009 C 
ATOM     85  CG2 VAL A  98      -4.922   4.273  15.485  1.00 29.90     0.012 C 
ATOM     86  CG1 VAL A  98      -5.778   2.190  16.538  1.00 14.79     0.012 C 
ENDBRANCH  83  84
END_RES VAL A  98
BEGIN_RES ASN A 112
REMARK  2 active torsions:
REMARK  status: ('A' for Active; 'I' for Inactive)
REMARK   28  A    between atoms: CA   and  CB  
REMARK   29  A    between atoms: CB   and  CG  
REMARK       I    between atoms: CG   and  ND2 
ROOT
ATOM     87  CA  ASN A 112     -11.790  -8.793  14.069  1.00 37.70     0.185 C 
ENDROOT
BRANCH  87  88
ATOM     88  CB  ASN A 112     -12.992  -7.945  14.465  1.00 26.24     0.137 C 
BRANCH  88  89
ATOM     89  CG  ASN A 112     -13.940  -8.661  15.400  1.00 21.77     0.217 C 
ATOM     90  ND2 ASN A 112     -13.623  -8.634  16.694  1.00  9.31    -0.370 N 
ATOM     91  H04 ASN A 112     -14.215  -9.096  17.370  1.00  9.31     0.159 HD
ATOM     92  H05 ASN A 112     -12.790  -8.151  17.000  1.00  9.31     0.159 HD
ATOM     93  OD1 ASN A 112     -14.945  -9.239  14.968  1.00 21.61    -0.274 OA
ENDBRANCH  88  89
ENDBRANCH  87  88
END_RES ASN A 112
BEGIN_RES PHE A 114
REMARK  2 active torsions:
REMARK  status: ('A' for Active; 'I' for Inactive)
REMARK   30  A    between atoms: CA   and  CB  
REMARK   31  A    between atoms: CB   and  CG  
ROOT
ATOM     94  CA  PHE A 114      -7.754  -3.619  17.012  1.00 26.06     0.180 C 
ENDROOT
BRANCH  94  95
ATOM     95  CB  PHE A 114      -8.890  -3.080  17.867  1.00 19.95     0.073 C 
BRANCH  95  96
ATOM     96  CG  PHE A 114      -8.766  -1.621  18.165  1.00 17.65    -0.056 A 
ATOM     97  CD1 PHE A 114      -8.896  -1.146  19.467  1.00 13.01     0.007 A 
ATOM     98  CE1 PHE A 114      -8.810   0.213  19.741  1.00  6.74     0.001 A 
ATOM     99  CZ  PHE A 114      -8.589   1.120  18.708  1.00  6.27     0.000 A 
ATOM    100  CE2 PHE A 114      -8.457   0.658  17.408  1.00 17.36     0.001 A 
ATOM    101  CD2 PHE A 114      -8.546  -0.712  17.140  1.00 18.39     0.007 A 
ENDBRANCH  95  96
ENDBRANCH  94  95
END_RES PHE A 114
BEGIN_RES VAL A 116
REMARK  1 active torsions:
REMARK  status: ('A' for Active; 'I' for Inactive)
REMARK   32  A    between atoms: CA   and  CB  
ROOT
ATOM    102  CA  VAL A 116      -2.467   0.283  18.565  1.00 13.48     0.180 C 
ENDROOT
BRANCH 102 103
ATOM    103  CB  VAL A 116      -3.101   1.238  19.599  1.00 20.86     0.009 C 
ATOM    104  CG1 VAL A 116      -2.924   2.686  19.134  1.00 25.01     0.012 C 
ATOM    105  CG2 VAL A 116      -4.556   0.899  19.824  1.00 25.34     0.012 C 
ENDBRANCH 102 103
END_RES VAL A 116
BEGIN_RES ILE A 123
REMARK  2 active torsions:
REMARK  status: ('A' for Active; 'I' for Inactive)
REMARK   33  A    between atoms: CA   and  CB  
REMARK   34  A    between atoms: CB   and  CG1 
ROOT
ATOM    106  CA  ILE A 123       1.557  -1.626  23.222  1.00 15.07     0.180 C 
ENDROOT
BRANCH 106 107
ATOM    107  CB  ILE A 123       1.697  -0.112  23.461  1.00 14.41     0.013 C 
ATOM    108  CG2 ILE A 123       3.104   0.209  23.933  1.00 18.35     0.012 C 
BRANCH 107 109
ATOM    109  CG1 ILE A 123       1.381   0.658  22.181  1.00 15.23     0.002 C 
ATOM    110  CD1 ILE A 123       0.235   1.630  22.327  1.00 14.67     0.005 C 
ENDBRANCH 107 109
ENDBRANCH 106 107
END_RES ILE A 123
BEGIN_RES LEU A 124
REMARK  2 active torsions:
REMARK  status: ('A' for Active; 'I' for Inactive)
REMARK   35  A    between atoms: CA   and  CB  
REMARK   36  A    between atoms: CB   and  CG  
ROOT
ATOM    111  CA  LEU A 124      -2.057  -2.686  23.524  1.00 11.86     0.177 C 
ENDROOT
BRANCH 111 112
ATOM    112  CB  LEU A 124      -2.698  -1.652  24.429  1.00 14.60     0.038 C 
BRANCH 112 113
ATOM    113  CG  LEU A 124      -2.617  -0.251  23.843  1.00 16.19    -0.020 C 
ATOM    114  CD1 LEU A 124      -4.023   0.184  23.385  1.00 22.07     0.009 C 
ATOM    115  CD2 LEU A 124      -2.044   0.692  24.871  1.00  9.12     0.009 C 
ENDBRANCH 112 113
ENDBRANCH 111 112
END_RES LEU A 124
BEGIN_RES PHE A 126
REMARK  2 active torsions:
REMARK  status: ('A' for Active; 'I' for Inactive)
REMARK   37  A    between atoms: CA   and  CB  
REMARK   38  A    between atoms: CB   and  CG  
ROOT
ATOM    116  CA  PHE A 126      -8.784  -4.792  22.233  1.00 23.15     0.180 C 
ENDROOT
BRANCH 116 117
ATOM    117  CB  PHE A 126      -9.823  -4.011  21.461  1.00 20.65     0.073 C 
BRANCH 117 118
ATOM    118  CG  PHE A 126     -10.947  -3.539  22.297  1.00 23.65    -0.056 A 
ATOM    119  CD2 PHE A 126     -10.751  -2.561  23.257  1.00 36.63     0.007 A 
ATOM    120  CE2 PHE A 126     -11.818  -2.114  24.048  1.00 36.27     0.001 A 
ATOM    121  CZ  PHE A 126     -13.084  -2.653  23.872  1.00 18.06     0.000 A 
ATOM    122  CE1 PHE A 126     -13.283  -3.628  22.915  1.00  5.50     0.001 A 
ATOM    123  CD1 PHE A 126     -12.217  -4.065  22.130  1.00 15.29     0.007 A 
ENDBRANCH 117 118
ENDBRANCH 116 117
END_RES PHE A 126
BEGIN_RES TRP A 131
REMARK  2 active torsions:
REMARK  status: ('A' for Active; 'I' for Inactive)
REMARK   39  A    between atoms: CA   and  CB  
REMARK   40  A    between atoms: CB   and  CG  
ROOT
ATOM    124  CA  TRP A 131      -8.096  -3.335  26.542  1.00 14.52     0.181 C 
ENDROOT
BRANCH 124 125
ATOM    125  CB  TRP A 131      -7.651  -1.877  26.607  1.00 13.06     0.075 C 
BRANCH 125 126
ATOM    126  CG  TRP A 131      -8.030  -1.057  25.393  1.00 16.97    -0.028 A 
ATOM    127  CD2 TRP A 131      -9.104  -0.118  25.301  1.00 11.34    -0.002 A 
ATOM    128  CE2 TRP A 131      -9.088   0.417  23.998  1.00  5.87     0.042 A 
ATOM    129  CE3 TRP A 131     -10.081   0.323  26.200  1.00  3.80     0.014 A 
ATOM    130  CZ2 TRP A 131     -10.011   1.373  23.571  1.00  1.35     0.030 A 
ATOM    131  NE1 TRP A 131      -8.052  -0.172  23.325  1.00 13.90    -0.365 N 
ATOM    132  CH2 TRP A 131     -10.958   1.788  24.474  1.00  1.00     0.002 A 
ATOM    133  CZ3 TRP A 131     -10.999   1.269  25.782  1.00  1.00     0.001 A 
ATOM    134  CD1 TRP A 131      -7.420  -1.055  24.169  1.00 17.22     0.096 A 
ATOM    135  H07 TRP A 131      -7.794   0.013  22.367  1.00 13.90     0.165 HD
ENDBRANCH 125 126
ENDBRANCH 124 125
END_RES TRP A 131
BEGIN_RES LEU A 148
REMARK  2 active torsions:
REMARK  status: ('A' for Active; 'I' for Inactive)
REMARK   41  A    between atoms: CA   and  CB  
REMARK   42  A    between atoms: CB   and  CG  
ROOT
ATOM    136  CA  LEU A 148      -9.018   3.259  29.295  1.00 16.99     0.177 C 
ENDROOT
BRANCH 136 137
ATOM    137  CB  LEU A 148      -8.166   2.574  28.236  1.00  6.39     0.038 C 
BRANCH 137 138
ATOM    138  CG  LEU A 148      -7.279   3.377  27.306  1.00  1.00    -0.020 C 
ATOM    139  CD2 LEU A 148      -7.885   3.440  25.934  1.00  1.00     0.009 C 
ATOM    140  CD1 LEU A 148      -5.916   2.711  27.257  1.00  2.71     0.009 C 
ENDBRANCH 137 138
ENDBRANCH 136 137
END_RES LEU A 148
BEGIN_RES THR A 154
REMARK  2 active torsions:
REMARK  status: ('A' for Active; 'I' for Inactive)
REMARK   43  A    between atoms: CA   and  CB  
REMARK   44  A    between atoms: CB   and  OG1 
ROOT
ATOM    141  CA  THR A 154     -15.990   3.959  24.426  1.00 20.45     0.205 C 
ENDROOT
BRANCH 141 142
ATOM    142  CB  THR A 154     -14.777   4.829  24.694  1.00 16.79     0.146 C 
ATOM    143  CG2 THR A 154     -13.608   4.373  23.842  1.00 20.24     0.042 C 
BRANCH 142 144
ATOM    144  OG1 THR A 154     -15.095   6.185  24.357  1.00 18.84    -0.393 OA
ATOM    145  H06 THR A 154     -15.204   6.698  25.161  1.00 18.84     0.210 HD
ENDBRANCH 142 144
ENDBRANCH 141 142
END_RES THR A 154
BEGIN_RES VAL A 158
REMARK  1 active torsions:
REMARK  status: ('A' for Active; 'I' for Inactive)
REMARK   45  A    between atoms: CA   and  CB  
ROOT
ATOM    146  CA  VAL A 158     -15.487  -0.189  19.892  1.00 15.49     0.180 C 
ENDROOT
BRANCH 146 147
ATOM    147  CB  VAL A 158     -14.291  -0.273  20.822  1.00  6.52     0.009 C 
ATOM    148  CG1 VAL A 158     -13.185  -1.098  20.205  1.00  1.00     0.012 C 
ATOM    149  CG2 VAL A 158     -13.814   1.115  21.117  1.00  5.99     0.012 C 
ENDBRANCH 146 147
END_RES VAL A 158
BEGIN_RES LEU A 161
REMARK  2 active torsions:
REMARK  status: ('A' for Active; 'I' for Inactive)
REMARK   46  A    between atoms: CA   and  CB  
REMARK   47  A    between atoms: CB   and  CG  
ROOT
ATOM    150  CA  LEU A 161     -18.031  -1.858  15.935  1.00 13.31     0.177 C 
ENDROOT
BRANCH 150 151
ATOM    151  CB  LEU A 161     -17.046  -0.706  16.001  1.00 14.13     0.038 C 
BRANCH 151 152
ATOM    152  CG  LEU A 161     -17.549   0.642  15.500  1.00 19.39    -0.020 C 
ATOM    153  CD2 LEU A 161     -16.988   1.757  16.347  1.00 27.75     0.009 C 
ATOM    154  CD1 LEU A 161     -19.053   0.654  15.562  1.00 18.59     0.009 C 
ENDBRANCH 151 152
ENDBRANCH 150 151
END_RES LEU A 161
BEGIN_RES GLN A 168
REMARK  3 active torsions:
REMARK  status: ('A' for Active; 'I' for Inactive)
REMARK   48  A    between atoms: CA   and  CB  
REMARK   49  A    between atoms: CB   and  CG  
REMARK   50  A    between atoms: CG   and  CD  
REMARK       I    between atoms: CD   and  NE2 
ROOT
ATOM    155  CA  GLN A 168     -22.035  -6.020   8.155  1.00 30.94     0.177 C 
ENDROOT
BRANCH 155 156
ATOM    156  CB  GLN A 168     -23.054  -5.218   8.946  1.00 41.76     0.044 C 
BRANCH 156 157
ATOM    157  CG  GLN A 168     -24.482  -5.431   8.521  1.00 61.20     0.105 C 
BRANCH 157 158
ATOM    158  CD  GLN A 168     -24.996  -4.283   7.673  1.00 75.49     0.215 C 
ATOM    159  NE2 GLN A 168     -25.585  -3.282   8.330  1.00 85.00    -0.370 N 
ATOM    160  H06 GLN A 168     -25.951  -2.490   7.821  1.00 85.00     0.159 HD
ATOM    161  H07 GLN A 168     -25.665  -3.317   9.337  1.00 85.00     0.159 HD
ATOM    162  OE1 GLN A 168     -24.873  -4.294   6.440  1.00 73.64    -0.274 OA
ENDBRANCH 157 158
ENDBRANCH 156 157
ENDBRANCH 155 156
END_RES GLN A 168
ENDMDL
