REMARK  Name = human_CD1d_brij35_pred.rank_0
REMARK  79 active torsions:
REMARK  status: ('A' for Active; 'I' for Inactive)
REMARK    1  A    between atoms: O_2  and  C_23
REMARK    2  A    between atoms: O_2  and  C_25
REMARK    3  A    between atoms: C_3  and  C_5
REMARK    4  A    between atoms: O_4  and  C_27
REMARK    5  A    between atoms: O_4  and  C_29
REMARK    6  A    between atoms: C_5  and  C_7
REMARK    7  A    between atoms: O_6  and  C_31
REMARK    8  A    between atoms: O_6  and  C_33
REMARK    9  A    between atoms: C_7  and  C_9
REMARK   10  A    between atoms: O_8  and  C_35
REMARK   11  A    between atoms: O_8  and  C_37
REMARK   12  A    between atoms: C_9  and  C_11
REMARK   13  A    between atoms: O_10  and  C_39
REMARK   14  A    between atoms: O_10  and  C_41
REMARK   15  A    between atoms: C_11  and  C_13
REMARK   16  A    between atoms: O_12  and  C_43
REMARK   17  A    between atoms: O_12  and  C_45
REMARK   18  A    between atoms: C_13  and  C_15
REMARK   19  A    between atoms: O_14  and  C_47
REMARK   20  A    between atoms: O_14  and  C_49
REMARK   21  A    between atoms: C_15  and  C_17
REMARK   22  A    between atoms: O_16  and  C_50
REMARK   23  A    between atoms: O_16  and  C_51
REMARK   24  A    between atoms: C_17  and  C_19
REMARK   25  A    between atoms: O_18  and  C_52
REMARK   26  A    between atoms: O_18  and  C_53
REMARK   27  A    between atoms: C_19  and  C_21
REMARK   28  A    between atoms: O_20  and  C_54
REMARK   29  A    between atoms: O_20  and  C_55
REMARK   30  A    between atoms: C_21  and  C_23
REMARK   31  A    between atoms: O_22  and  C_56
REMARK   32  A    between atoms: O_22  and  C_57
REMARK   33  A    between atoms: O_24  and  C_58
REMARK   34  A    between atoms: O_24  and  C_59
REMARK   35  A    between atoms: C_25  and  C_27
REMARK   36  A    between atoms: O_26  and  C_60
REMARK   37  A    between atoms: O_26  and  C_61
REMARK   38  A    between atoms: O_28  and  C_62
REMARK   39  A    between atoms: O_28  and  C_63
REMARK   40  A    between atoms: C_29  and  C_31
REMARK   41  A    between atoms: O_30  and  C_64
REMARK   42  A    between atoms: O_30  and  C_65
REMARK   43  A    between atoms: O_32  and  C_66
REMARK   44  A    between atoms: O_32  and  C_67
REMARK   45  A    between atoms: C_33  and  C_35
REMARK   46  A    between atoms: O_34  and  C_68
REMARK   47  A    between atoms: O_34  and  C_69
REMARK   48  A    between atoms: O_36  and  C_70
REMARK   49  A    between atoms: O_36  and  C_71
REMARK   50  A    between atoms: C_37  and  C_39
REMARK   51  A    between atoms: O_38  and  C_72
REMARK   52  A    between atoms: O_38  and  C_73
REMARK   53  A    between atoms: O_40  and  C_74
REMARK   54  A    between atoms: O_40  and  C_75
REMARK   55  A    between atoms: C_41  and  C_43
REMARK   56  A    between atoms: O_42  and  C_76
REMARK   57  A    between atoms: O_42  and  C_77
REMARK   58  A    between atoms: O_44  and  C_78
REMARK   59  A    between atoms: O_44  and  C_79
REMARK   60  A    between atoms: C_45  and  C_47
REMARK   61  A    between atoms: O_46  and  C_80
REMARK   62  A    between atoms: O_46  and  C_81
REMARK   63  A    between atoms: C_49  and  C_50
REMARK   64  A    between atoms: C_51  and  C_52
REMARK   65  A    between atoms: C_53  and  C_54
REMARK   66  A    between atoms: C_55  and  C_56
REMARK   67  A    between atoms: C_57  and  C_58
REMARK   68  A    between atoms: C_59  and  C_60
REMARK   69  A    between atoms: C_61  and  C_62
REMARK   70  A    between atoms: C_63  and  C_64
REMARK   71  A    between atoms: C_65  and  C_66
REMARK   72  A    between atoms: C_67  and  C_68
REMARK   73  A    between atoms: C_69  and  C_70
REMARK   74  A    between atoms: C_71  and  C_72
REMARK   75  A    between atoms: C_73  and  C_74
REMARK   76  A    between atoms: C_75  and  C_76
REMARK   77  A    between atoms: C_77  and  C_78
REMARK   78  A    between atoms: C_79  and  C_80
REMARK   79  A    between atoms: C_81  and  C_82
REMARK                            x       y       z     vdW  Elec       q    Type
REMARK                         _______ _______ _______ _____ _____    ______ ____
ROOT
ATOM      1  C   UNL     1      -4.697  -9.630  15.590  0.00  0.00    +0.000 C 
ENDROOT
BRANCH   1   2
ATOM      2  C   UNL     1      -5.755  -9.678  16.680  0.00  0.00    +0.000 C 
BRANCH   2   3
ATOM      3  O   UNL     1      -6.400 -10.963  16.721  0.00  0.00    +0.000 OA
BRANCH   3   4
ATOM      4  C   UNL     1      -5.620 -11.875  17.511  0.00  0.00    +0.000 C 
BRANCH   4   5
ATOM      5  C   UNL     1      -6.448 -13.049  17.998  0.00  0.00    +0.000 C 
BRANCH   5   6
ATOM      6  O   UNL     1      -5.863 -13.523  19.230  0.00  0.00    +0.000 OA
BRANCH   6   7
ATOM      7  C   UNL     1      -6.757 -14.295  20.028  0.00  0.00    +0.000 C 
BRANCH   7   8
ATOM      8  C   UNL     1      -6.156 -14.520  21.423  0.00  0.00    +0.000 C 
BRANCH   8   9
ATOM      9  O   UNL     1      -7.177 -14.962  22.340  0.00  0.00    +0.000 OA
BRANCH   9  10
ATOM     10  C   UNL     1      -8.089 -13.939  22.692  0.00  0.00    +0.000 C 
BRANCH  10  11
ATOM     11  C   UNL     1      -9.324 -14.522  23.431  0.00  0.00    +0.000 C 
BRANCH  11  12
ATOM     12  O   UNL     1      -9.756 -15.708  22.778  0.00  0.00    +0.000 OA
BRANCH  12  13
ATOM     13  C   UNL     1     -11.151 -15.979  22.836  0.00  0.00    +0.000 C 
BRANCH  13  14
ATOM     14  C   UNL     1     -11.416 -17.344  22.143  0.00  0.00    +0.000 C 
BRANCH  14  15
ATOM     15  O   UNL     1     -12.047 -17.185  20.858  0.00  0.00    +0.000 OA
BRANCH  15  16
ATOM     16  C   UNL     1     -11.606 -18.047  19.842  0.00  0.00    +0.000 C 
BRANCH  16  17
ATOM     17  C   UNL     1     -12.160 -17.541  18.527  0.00  0.00    +0.000 C 
BRANCH  17  18
ATOM     18  O   UNL     1     -11.216 -17.692  17.456  0.00  0.00    +0.000 OA
BRANCH  18  19
ATOM     19  C   UNL     1     -11.692 -17.276  16.211  0.00  0.00    +0.000 C 
BRANCH  19  20
ATOM     20  C   UNL     1     -12.502 -18.381  15.554  0.00  0.00    +0.000 C 
BRANCH  20  21
ATOM     21  O   UNL     1     -13.487 -17.797  14.716  0.00  0.00    +0.000 OA
BRANCH  21  22
ATOM     22  C   UNL     1     -14.498 -18.714  14.422  0.00  0.00    +0.000 C 
BRANCH  22  23
ATOM     23  C   UNL     1     -15.736 -17.945  13.943  0.00  0.00    +0.000 C 
BRANCH  23  24
ATOM     24  O   UNL     1     -16.901 -18.724  14.158  0.00  0.00    +0.000 OA
BRANCH  24  25
ATOM     25  C   UNL     1     -17.171 -18.923  15.544  0.00  0.00    +0.000 C 
BRANCH  25  26
ATOM     26  C   UNL     1     -18.431 -19.813  15.655  0.00  0.00    +0.000 C 
BRANCH  26  27
ATOM     27  O   UNL     1     -18.420 -20.470  16.923  0.00  0.00    +0.000 OA
BRANCH  27  28
ATOM     28  C   UNL     1     -17.455 -21.489  17.020  0.00  0.00    +0.000 C 
BRANCH  28  29
ATOM     29  C   UNL     1     -17.398 -22.103  18.393  0.00  0.00    +0.000 C 
BRANCH  29  30
ATOM     30  O   UNL     1     -16.237 -22.867  18.523  0.00  0.00    +0.000 OA
BRANCH  30  31
ATOM     31  C   UNL     1     -15.092 -22.096  18.834  0.00  0.00    +0.000 C 
BRANCH  31  32
ATOM     32  C   UNL     1     -13.857 -22.939  18.600  0.00  0.00    +0.000 C 
BRANCH  32  33
ATOM     33  O   UNL     1     -12.738 -22.091  18.575  0.00  0.00    +0.000 OA
BRANCH  33  34
ATOM     34  C   UNL     1     -11.540 -22.761  18.784  0.00  0.00    +0.000 C 
BRANCH  34  35
ATOM     35  C   UNL     1     -10.467 -21.757  19.153  0.00  0.00    +0.000 C 
BRANCH  35  36
ATOM     36  O   UNL     1      -9.744 -22.240  20.277  0.00  0.00    +0.000 OA
BRANCH  36  37
ATOM     37  C   UNL     1      -8.757 -21.323  20.692  0.00  0.00    +0.000 C 
BRANCH  37  38
ATOM     38  C   UNL     1      -8.009 -21.911  21.902  0.00  0.00    +0.000 C 
BRANCH  38  39
ATOM     39  O   UNL     1      -6.823 -22.474  21.403  0.00  0.00    +0.000 OA
BRANCH  39  40
ATOM     40  C   UNL     1      -6.678 -23.858  21.829  0.00  0.00    +0.000 C 
BRANCH  40  42
ATOM     41  O   UNL     1      -5.522 -25.898  21.295  0.00  0.00    +0.000 OA
ATOM     42  C   UNL     1      -5.730 -24.557  20.871  0.00  0.00    +0.000 C 
ENDBRANCH  40  42
ENDBRANCH  39  40
ENDBRANCH  38  39
ENDBRANCH  37  38
ENDBRANCH  36  37
ENDBRANCH  35  36
ENDBRANCH  34  35
ENDBRANCH  33  34
ENDBRANCH  32  33
ENDBRANCH  31  32
ENDBRANCH  30  31
ENDBRANCH  29  30
ENDBRANCH  28  29
ENDBRANCH  27  28
ENDBRANCH  26  27
ENDBRANCH  25  26
ENDBRANCH  24  25
ENDBRANCH  23  24
ENDBRANCH  22  23
ENDBRANCH  21  22
ENDBRANCH  20  21
ENDBRANCH  19  20
ENDBRANCH  18  19
ENDBRANCH  17  18
ENDBRANCH  16  17
ENDBRANCH  15  16
ENDBRANCH  14  15
ENDBRANCH  13  14
ENDBRANCH  12  13
ENDBRANCH  11  12
ENDBRANCH  10  11
ENDBRANCH   9  10
ENDBRANCH   8   9
ENDBRANCH   7   8
ENDBRANCH   6   7
ENDBRANCH   5   6
ENDBRANCH   4   5
ENDBRANCH   3   4
ENDBRANCH   2   3
ENDBRANCH   1   2
BRANCH   1  43
ATOM     43  O   UNL     1      -3.480  -9.096  16.091  0.00  0.00    +0.000 OA
BRANCH  43  44
ATOM     44  C   UNL     1      -2.699 -10.046  16.731  0.00  0.00    +0.000 C 
BRANCH  44  45
ATOM     45  C   UNL     1      -2.173 -11.051  15.702  0.00  0.00    +0.000 C 
BRANCH  45  46
ATOM     46  O   UNL     1      -1.605 -10.327  14.615  0.00  0.00    +0.000 OA
BRANCH  46  47
ATOM     47  C   UNL     1      -0.667 -11.022  13.852  0.00  0.00    +0.000 C 
BRANCH  47  48
ATOM     48  C   UNL     1      -0.824 -10.649  12.369  0.00  0.00    +0.000 C 
BRANCH  48  49
ATOM     49  O   UNL     1      -1.394 -11.716  11.698  0.00  0.00    +0.000 OA
BRANCH  49  50
ATOM     50  C   UNL     1      -1.625 -11.417  10.328  0.00  0.00    +0.000 C 
BRANCH  50  51
ATOM     51  C   UNL     1      -3.128 -11.398  10.072  0.00  0.00    +0.000 C 
BRANCH  51  52
ATOM     52  O   UNL     1      -3.375 -11.745   8.695  0.00  0.00    +0.000 OA
BRANCH  52  53
ATOM     53  C   UNL     1      -4.724 -12.190   8.521  0.00  0.00    +0.000 C 
BRANCH  53  54
ATOM     54  C   UNL     1      -5.645 -10.977   8.316  0.00  0.00    +0.000 C 
BRANCH  54  55
ATOM     55  O   UNL     1      -6.940 -11.288   8.847  0.00  0.00    +0.000 OA
BRANCH  55  56
ATOM     56  C   UNL     1      -7.768 -10.136   8.884  0.00  0.00    +0.000 C 
BRANCH  56  57
ATOM     57  C   UNL     1      -8.893 -10.434   9.835  0.00  0.00    +0.000 C 
BRANCH  57  58
ATOM     58  O   UNL     1      -8.381 -10.608  11.146  0.00  0.00    +0.000 OA
BRANCH  58  59
ATOM     59  C   UNL     1      -9.041  -9.821  12.083  0.00  0.00    +0.000 C 
BRANCH  59  60
ATOM     60  C   UNL     1      -9.023 -10.538  13.423  0.00  0.00    +0.000 C 
BRANCH  60  61
ATOM     61  O   UNL     1      -9.912 -11.643  13.363  0.00  0.00    +0.000 OA
BRANCH  61  62
ATOM     62  C   UNL     1     -10.151 -12.229  14.622  0.00  0.00    +0.000 C 
BRANCH  62  63
ATOM     63  C   UNL     1     -11.025 -13.475  14.427  0.00  0.00    +0.000 C 
BRANCH  63  64
ATOM     64  O   UNL     1     -12.374 -13.022  14.373  0.00  0.00    +0.000 OA
BRANCH  64  65
ATOM     65  C   UNL     1     -13.251 -14.036  14.133  0.00  0.00    +0.000 C 
BRANCH  65  66
ATOM     66  C   UNL     1     -14.599 -13.499  13.598  0.00  0.00    +0.000 C 
BRANCH  66  67
ATOM     67  O   UNL     1     -15.308 -14.590  13.010  0.00  0.00    +0.000 OA
BRANCH  67  68
ATOM     68  C   UNL     1     -15.343 -14.491  11.586  0.00  0.00    +0.000 C 
BRANCH  68  69
ATOM     69  C   UNL     1     -16.205 -15.677  11.102  0.00  0.00    +0.000 C 
BRANCH  69  70
ATOM     70  O   UNL     1     -16.340 -15.491   9.674  0.00  0.00    +0.000 OA
BRANCH  70  71
ATOM     71  C   UNL     1     -17.446 -14.640   9.420  0.00  0.00    +0.000 C 
BRANCH  71  72
ATOM     72  C   UNL     1     -16.853 -13.365   8.740  0.00  0.00    +0.000 C 
BRANCH  72  73
ATOM     73  C   UNL     1     -17.758 -12.205   9.147  0.00  0.00    +0.000 C 
BRANCH  73  74
ATOM     74  C   UNL     1     -17.316 -10.955   8.382  0.00  0.00    +0.000 C 
BRANCH  74  75
ATOM     75  C   UNL     1     -17.688 -11.089   6.931  0.00  0.00    +0.000 C 
BRANCH  75  76
ATOM     76  C   UNL     1     -19.045 -10.486   6.717  0.00  0.00    +0.000 C 
BRANCH  76  77
ATOM     77  C   UNL     1     -19.361 -10.524   5.234  0.00  0.00    +0.000 C 
BRANCH  77  78
ATOM     78  C   UNL     1     -20.683 -11.266   5.031  0.00  0.00    +0.000 C 
BRANCH  78  79
ATOM     79  C   UNL     1     -21.205 -11.005   3.627  0.00  0.00    +0.000 C 
BRANCH  79  80
ATOM     80  C   UNL     1     -20.350 -11.678   2.589  0.00  0.00    +0.000 C 
BRANCH  80  82
ATOM     81  C   UNL     1     -20.322 -12.638   0.304  0.00  0.00    +0.000 C 
ATOM     82  C   UNL     1     -21.125 -11.838   1.307  0.00  0.00    +0.000 C 
ENDBRANCH  80  82
ENDBRANCH  79  80
ENDBRANCH  78  79
ENDBRANCH  77  78
ENDBRANCH  76  77
ENDBRANCH  75  76
ENDBRANCH  74  75
ENDBRANCH  73  74
ENDBRANCH  72  73
ENDBRANCH  71  72
ENDBRANCH  70  71
ENDBRANCH  69  70
ENDBRANCH  68  69
ENDBRANCH  67  68
ENDBRANCH  66  67
ENDBRANCH  65  66
ENDBRANCH  64  65
ENDBRANCH  63  64
ENDBRANCH  62  63
ENDBRANCH  61  62
ENDBRANCH  60  61
ENDBRANCH  59  60
ENDBRANCH  58  59
ENDBRANCH  57  58
ENDBRANCH  56  57
ENDBRANCH  55  56
ENDBRANCH  54  55
ENDBRANCH  53  54
ENDBRANCH  52  53
ENDBRANCH  51  52
ENDBRANCH  50  51
ENDBRANCH  49  50
ENDBRANCH  48  49
ENDBRANCH  47  48
ENDBRANCH  46  47
ENDBRANCH  45  46
ENDBRANCH  44  45
ENDBRANCH  43  44
ENDBRANCH   1  43
TORSDOF 79
