MODEL 1
REMARK VINA RESULT:      -8.2      0.000      0.000
REMARK  Name = human_CD1d_NP40_pred.rank_0
REMARK  35 active torsions:
REMARK  status: ('A' for Active; 'I' for Inactive)
REMARK    1  A    between atoms: O_2  and  C_23
REMARK    2  A    between atoms: O_2  and  C_24
REMARK    3  A    between atoms: C_3  and  C_5
REMARK    4  A    between atoms: O_4  and  C_25
REMARK    5  A    between atoms: O_4  and  C_26
REMARK    6  A    between atoms: C_5  and  C_7
REMARK    7  A    between atoms: O_6  and  C_27
REMARK    8  A    between atoms: O_6  and  C_28
REMARK    9  A    between atoms: C_7  and  C_9
REMARK   10  A    between atoms: O_8  and  C_29
REMARK   11  A    between atoms: O_8  and  C_30
REMARK   12  A    between atoms: C_9  and  C_11
REMARK   13  A    between atoms: O_10  and  C_31
REMARK   14  A    between atoms: O_10  and  C_32
REMARK   15  A    between atoms: C_11  and  C_13
REMARK   16  A    between atoms: O_12  and  C_33
REMARK   17  A    between atoms: O_12  and  C_34
REMARK   18  A    between atoms: C_13  and  C_15
REMARK   19  A    between atoms: O_14  and  C_35
REMARK   20  A    between atoms: O_14  and  C_36
REMARK   21  A    between atoms: C_15  and  C_17
REMARK   22  A    between atoms: O_16  and  C_37
REMARK   23  A    between atoms: O_16  and  C_38
REMARK   24  A    between atoms: C_17  and  C_19
REMARK   25  A    between atoms: O_18  and  C_39
REMARK   26  A    between atoms: O_18  and  C_40
REMARK   27  A    between atoms: C_24  and  C_25
REMARK   28  A    between atoms: C_26  and  C_27
REMARK   29  A    between atoms: C_28  and  C_29
REMARK   30  A    between atoms: C_30  and  C_31
REMARK   31  A    between atoms: C_32  and  C_33
REMARK   32  A    between atoms: C_34  and  C_35
REMARK   33  A    between atoms: C_36  and  C_37
REMARK   34  A    between atoms: C_38  and  C_39
REMARK   35  A    between atoms: C_40  and  C_41
REMARK                            x       y       z     vdW  Elec       q    Type
REMARK                         _______ _______ _______ _____ _____    ______ ____
ROOT
ATOM      1  O   UNL     1     -13.684   1.170  13.064  0.00  0.00    +0.000 OA
ENDROOT
BRANCH   1   2
ATOM      2  C   UNL     1     -14.227  -0.061  13.586  0.00  0.00    +0.000 C 
BRANCH   2   3
ATOM      3  C   UNL     1     -13.205  -1.198  13.415  0.00  0.00    +0.000 C 
BRANCH   3   4
ATOM      4  O   UNL     1     -13.398  -1.837  12.126  0.00  0.00    +0.000 OA
BRANCH   4   5
ATOM      5  C   UNL     1     -12.514  -1.275  11.134  0.00  0.00    +0.000 C 
BRANCH   5   6
ATOM      6  C   UNL     1     -13.202  -1.269   9.797  0.00  0.00    +0.000 C 
BRANCH   6   7
ATOM      7  O   UNL     1     -14.260  -0.253   9.817  0.00  0.00    +0.000 OA
BRANCH   7   8
ATOM      8  C   UNL     1     -15.581  -0.762   9.650  0.00  0.00    +0.000 C 
BRANCH   8   9
ATOM      9  C   UNL     1     -16.530  -0.151  10.691  0.00  0.00    +0.000 C 
BRANCH   9  10
ATOM     10  O   UNL     1     -16.933   1.189  10.249  0.00  0.00    +0.000 OA
BRANCH  10  11
ATOM     11  C   UNL     1     -16.395   2.237  11.126  0.00  0.00    +0.000 C 
BRANCH  11  12
ATOM     12  C   UNL     1     -15.334   3.057  10.367  0.00  0.00    +0.000 C 
BRANCH  12  13
ATOM     13  O   UNL     1     -15.930   4.311   9.889  0.00  0.00    +0.000 OA
BRANCH  13  14
ATOM     14  C   UNL     1     -16.312   4.237   8.490  0.00  0.00    +0.000 C 
BRANCH  14  15
ATOM     15  C   UNL     1     -16.049   5.618   7.798  0.00  0.00    +0.000 C 
BRANCH  15  16
ATOM     16  O   UNL     1     -14.856   5.519   6.966  0.00  0.00    +0.000 OA
BRANCH  16  17
ATOM     17  C   UNL     1     -14.570   4.167   6.582  0.00  0.00    +0.000 C 
BRANCH  17  18
ATOM     18  C   UNL     1     -13.065   3.973   6.385  0.00  0.00    +0.000 C 
BRANCH  18  19
ATOM     19  O   UNL     1     -12.324   5.133   6.871  0.00  0.00    +0.000 OA
BRANCH  19  20
ATOM     20  C   UNL     1     -10.942   5.034   6.536  0.00  0.00    +0.000 C 
BRANCH  20  22
ATOM     21  O   UNL     1      -9.165   5.073   8.152  0.00  0.00    +0.000 OA
ATOM     22  C   UNL     1     -10.089   5.901   7.453  0.00  0.00    +0.000 C 
ENDBRANCH  20  22
ENDBRANCH  19  20
ENDBRANCH  18  19
ENDBRANCH  17  18
ENDBRANCH  16  17
ENDBRANCH  15  16
ENDBRANCH  14  15
ENDBRANCH  13  14
ENDBRANCH  12  13
ENDBRANCH  11  12
ENDBRANCH  10  11
ENDBRANCH   9  10
ENDBRANCH   8   9
ENDBRANCH   7   8
ENDBRANCH   6   7
ENDBRANCH   5   6
ENDBRANCH   4   5
ENDBRANCH   3   4
ENDBRANCH   2   3
ENDBRANCH   1   2
BRANCH   1  23
ATOM     23  C   UNL     1     -13.200   2.041  14.123  0.00  0.00    +0.000 C 
BRANCH  23  24
ATOM     24  C   UNL     1     -11.684   1.998  14.157  0.00  0.00    +0.000 C 
BRANCH  24  25
ATOM     25  O   UNL     1     -11.172   2.737  13.020  0.00  0.00    +0.000 OA
BRANCH  25  26
ATOM     26  C   UNL     1     -10.062   3.617  13.332  0.00  0.00    +0.000 C 
BRANCH  26  27
ATOM     27  C   UNL     1      -9.928   3.754  14.864  0.00  0.00    +0.000 C 
BRANCH  27  28
ATOM     28  O   UNL     1     -10.599   4.944  15.306  0.00  0.00    +0.000 OA
BRANCH  28  32
ATOM     29  C   UNL     1      -8.219   8.373  15.308  0.00  0.00    +0.000 A 
ATOM     30  C   UNL     1      -9.516   8.412  14.869  0.00  0.00    +0.000 A 
ATOM     31  C   UNL     1     -10.284   7.268  14.869  0.00  0.00    +0.000 A 
ATOM     32  C   UNL     1      -9.761   6.066  15.335  0.00  0.00    +0.000 A 
ATOM     33  C   UNL     1      -8.473   6.048  15.725  0.00  0.00    +0.000 A 
ATOM     34  C   UNL     1      -7.698   7.189  15.722  0.00  0.00    +0.000 A 
BRANCH  29  35
ATOM     35  C   UNL     1      -7.400   9.632  15.302  0.00  0.00    +0.000 C 
BRANCH  35  36
ATOM     36  C   UNL     1      -5.968   9.335  15.728  0.00  0.00    +0.000 C 
BRANCH  36  37
ATOM     37  C   UNL     1      -5.528  10.298  16.828  0.00  0.00    +0.000 C 
BRANCH  37  38
ATOM     38  C   UNL     1      -4.861   9.615  18.014  0.00  0.00    +0.000 C 
BRANCH  38  39
ATOM     39  C   UNL     1      -4.828   8.080  17.809  0.00  0.00    +0.000 C 
BRANCH  39  40
ATOM     40  C   UNL     1      -4.068   7.411  18.950  0.00  0.00    +0.000 C 
BRANCH  40  41
ATOM     41  C   UNL     1      -4.126   5.903  18.835  0.00  0.00    +0.000 C 
BRANCH  41  43
ATOM     42  C   UNL     1      -4.283   6.240  21.310  0.00  0.00    +0.000 C 
ATOM     43  C   UNL     1      -4.654   5.328  20.150  0.00  0.00    +0.000 C 
ENDBRANCH  41  43
ENDBRANCH  40  41
ENDBRANCH  39  40
ENDBRANCH  38  39
ENDBRANCH  37  38
ENDBRANCH  36  37
ENDBRANCH  35  36
ENDBRANCH  29  35
ENDBRANCH  28  32
ENDBRANCH  27  28
ENDBRANCH  26  27
ENDBRANCH  25  26
ENDBRANCH  24  25
ENDBRANCH  23  24
ENDBRANCH   1  23
TORSDOF 35
BEGIN_RES LEU A  10
REMARK  2 active torsions:
REMARK  status: ('A' for Active; 'I' for Inactive)
REMARK    1  A    between atoms: CA   and  CB  
REMARK    2  A    between atoms: CB   and  CG  
ROOT
ATOM      1  CA  LEU A  10     -10.775  -4.871   5.898  1.00 25.14     0.177 C 
ENDROOT
BRANCH   1   2
ATOM      2  CB  LEU A  10     -12.191  -4.387   6.226  1.00 17.87     0.038 C 
BRANCH   2   3
ATOM      3  CG  LEU A  10     -12.446  -2.913   5.904  1.00 24.95    -0.020 C 
ATOM      4  CD2 LEU A  10     -13.758  -2.508   6.486  1.00 26.38     0.009 C 
ATOM      5  CD1 LEU A  10     -12.430  -2.674   4.404  1.00 28.12     0.009 C 
ENDBRANCH   2   3
ENDBRANCH   1   2
END_RES LEU A  10
BEGIN_RES CYS A  12
REMARK  2 active torsions:
REMARK  status: ('A' for Active; 'I' for Inactive)
REMARK    3  A    between atoms: CA   and  CB  
REMARK    4  A    between atoms: CB   and  SG  
ROOT
ATOM      6  CA  CYS A  12      -8.555   0.470   8.750  1.00 23.16     0.185 C 
ENDROOT
BRANCH   6   7
ATOM      7  CB  CYS A  12      -9.828   0.763   9.555  1.00 20.43     0.105 C 
BRANCH   7   8
ATOM      8  SG  CYS A  12     -10.955   2.003   8.846  1.00 24.64    -0.180 SA
ATOM      9  H04 CYS A  12     -10.276   3.127   8.585  1.00 24.64     0.101 HD
ENDBRANCH   7   8
ENDBRANCH   6   7
END_RES CYS A  12
BEGIN_RES GLN A  14
REMARK  3 active torsions:
REMARK  status: ('A' for Active; 'I' for Inactive)
REMARK    5  A    between atoms: CA   and  CB  
REMARK    6  A    between atoms: CB   and  CG  
REMARK    7  A    between atoms: CG   and  CD  
REMARK       I    between atoms: CD   and  NE2 
ROOT
ATOM     10  CA  GLN A  14      -4.645   5.402  11.377  1.00 10.43     0.177 C 
ENDROOT
BRANCH  10  11
ATOM     11  CB  GLN A  14      -5.541   5.549  12.608  1.00 14.45     0.044 C 
BRANCH  11  12
ATOM     12  CG  GLN A  14      -5.873   6.980  12.962  1.00 13.74     0.105 C 
BRANCH  12  13
ATOM     13  CD  GLN A  14      -6.578   7.704  11.839  1.00 16.29     0.215 C 
ATOM     14  NE2 GLN A  14      -6.301   8.982  11.700  1.00  8.57    -0.370 N 
ATOM     15  H06 GLN A  14      -6.741   9.517  10.966  1.00  8.57     0.159 HD
ATOM     16  H07 GLN A  14      -5.648   9.428  12.328  1.00  8.57     0.159 HD
ATOM     17  OE1 GLN A  14      -7.359   7.119  11.105  1.00 23.55    -0.274 OA
ENDBRANCH  12  13
ENDBRANCH  11  12
ENDBRANCH  10  11
END_RES GLN A  14
BEGIN_RES SER A  16
REMARK  2 active torsions:
REMARK  status: ('A' for Active; 'I' for Inactive)
REMARK    8  A    between atoms: CA   and  CB  
REMARK    9  A    between atoms: CB   and  OG  
ROOT
ATOM     18  CA  SER A  16      -1.305  10.019  14.282  1.00  2.34     0.200 C 
ENDROOT
BRANCH  18  19
ATOM     19  CB  SER A  16      -2.242   9.935  15.479  1.00  3.12     0.199 C 
BRANCH  19  20
ATOM     20  OG  SER A  16      -1.943   8.791  16.259  1.00  1.00    -0.398 OA
ATOM     21  H04 SER A  16      -1.021   8.815  16.524  1.00  1.00     0.209 HD
ENDBRANCH  19  20
ENDBRANCH  18  19
END_RES SER A  16
BEGIN_RES LEU A  32
REMARK  2 active torsions:
REMARK  status: ('A' for Active; 'I' for Inactive)
REMARK   10  A    between atoms: CA   and  CB  
REMARK   11  A    between atoms: CB   and  CG  
ROOT
ATOM     22  CA  LEU A  32     -10.272  -4.106   1.587  1.00 16.16     0.177 C 
ENDROOT
BRANCH  22  23
ATOM     23  CB  LEU A  32     -11.613  -3.858   0.880  1.00 12.35     0.038 C 
BRANCH  23  24
ATOM     24  CG  LEU A  32     -12.504  -5.117   0.880  1.00  9.77    -0.020 C 
ATOM     25  CD1 LEU A  32     -12.979  -5.425   2.280  1.00  4.35     0.009 C 
ATOM     26  CD2 LEU A  32     -13.690  -4.936  -0.031  1.00 10.60     0.009 C 
ENDBRANCH  23  24
ENDBRANCH  22  23
END_RES LEU A  32
BEGIN_RES HIS A  38
REMARK  2 active torsions:
REMARK  status: ('A' for Active; 'I' for Inactive)
REMARK   12  A    between atoms: CA   and  CB  
REMARK   13  A    between atoms: CB   and  CG  
ROOT
ATOM     27  CA  HIS A  38     -10.959   4.941   1.621  1.00 16.94     0.182 C 
ENDROOT
BRANCH  27  28
ATOM     28  CB  HIS A  38     -11.810   4.840   2.881  1.00 15.47     0.095 C 
BRANCH  28  29
ATOM     29  CG  HIS A  38     -13.022   3.980   2.724  1.00 18.62     0.053 A 
ATOM     30  CD2 HIS A  38     -14.219   4.228   2.140  1.00 15.06     0.116 A 
ATOM     31  NE2 HIS A  38     -14.964   3.082   2.248  1.00 18.12    -0.359 N 
ATOM     32  CE1 HIS A  38     -14.254   2.164   2.874  1.00 14.78     0.207 A 
ATOM     33  H06 HIS A  38     -15.906   2.961   1.903  1.00 18.12     0.166 HD
ATOM     34  ND1 HIS A  38     -13.079   2.679   3.174  1.00 16.58    -0.247 NA
ENDBRANCH  28  29
ENDBRANCH  27  28
END_RES HIS A  38
BEGIN_RES TRP A  63
REMARK  2 active torsions:
REMARK  status: ('A' for Active; 'I' for Inactive)
REMARK   14  A    between atoms: CA   and  CB  
REMARK   15  A    between atoms: CB   and  CG  
ROOT
ATOM     35  CA  TRP A  63     -22.437   6.257   6.543  1.00 27.04     0.181 C 
ENDROOT
BRANCH  35  36
ATOM     36  CB  TRP A  63     -22.360   6.642   5.068  1.00 31.37     0.075 C 
BRANCH  36  37
ATOM     37  CG  TRP A  63     -20.955   6.702   4.506  1.00 34.37    -0.028 A 
ATOM     38  CD2 TRP A  63     -19.914   5.729   4.667  1.00 33.79    -0.002 A 
ATOM     39  CE3 TRP A  63     -19.806   4.528   5.371  1.00 32.99     0.014 A 
ATOM     40  CE2 TRP A  63     -18.807   6.174   3.910  1.00 35.84     0.042 A 
ATOM     41  CZ3 TRP A  63     -18.615   3.819   5.302  1.00 32.93     0.001 A 
ATOM     42  CH2 TRP A  63     -17.532   4.288   4.541  1.00 39.24     0.002 A 
ATOM     43  CZ2 TRP A  63     -17.610   5.461   3.839  1.00 37.99     0.030 A 
ATOM     44  NE1 TRP A  63     -19.163   7.357   3.324  1.00 37.98    -0.365 N 
ATOM     45  H06 TRP A  63     -18.575   7.914   2.721  1.00 37.98     0.165 HD
ATOM     46  CD1 TRP A  63     -20.452   7.666   3.689  1.00 38.16     0.096 A 
ENDBRANCH  36  37
ENDBRANCH  35  36
END_RES TRP A  63
BEGIN_RES LEU A  66
REMARK  2 active torsions:
REMARK  status: ('A' for Active; 'I' for Inactive)
REMARK   16  A    between atoms: CA   and  CB  
REMARK   17  A    between atoms: CB   and  CG  
ROOT
ATOM     47  CA  LEU A  66     -20.004   6.489  11.120  1.00 10.90     0.177 C 
ENDROOT
BRANCH  47  48
ATOM     48  CB  LEU A  66     -19.626   5.453  10.069  1.00 13.57     0.038 C 
BRANCH  48  49
ATOM     49  CG  LEU A  66     -19.399   4.020  10.549  1.00  8.73    -0.020 C 
ATOM     50  CD1 LEU A  66     -20.106   3.780  11.858  1.00 14.23     0.009 C 
ATOM     51  CD2 LEU A  66     -19.922   3.075   9.498  1.00  1.92     0.009 C 
ENDBRANCH  48  49
ENDBRANCH  47  48
END_RES LEU A  66
BEGIN_RES PHE A  70
REMARK  2 active torsions:
REMARK  status: ('A' for Active; 'I' for Inactive)
REMARK   18  A    between atoms: CA   and  CB  
REMARK   19  A    between atoms: CB   and  CG  
ROOT
ATOM     52  CA  PHE A  70     -14.974   9.434  13.165  1.00  8.78     0.180 C 
ENDROOT
BRANCH  52  53
ATOM     53  CB  PHE A  70     -14.707   9.132  11.681  1.00  6.33     0.073 C 
BRANCH  53  54
ATOM     54  CG  PHE A  70     -13.967   7.841  11.457  1.00  3.42    -0.056 A 
ATOM     55  CD1 PHE A  70     -13.486   7.098  12.524  1.00 13.88     0.007 A 
ATOM     56  CE1 PHE A  70     -12.754   5.917  12.306  1.00 12.71     0.001 A 
ATOM     57  CZ  PHE A  70     -12.503   5.477  11.006  1.00  4.21     0.000 A 
ATOM     58  CE2 PHE A  70     -12.980   6.209   9.934  1.00  2.83     0.001 A 
ATOM     59  CD2 PHE A  70     -13.710   7.388  10.163  1.00  1.00     0.007 A 
ENDBRANCH  53  54
ENDBRANCH  52  53
END_RES PHE A  70
BEGIN_RES TYR A  73
REMARK  3 active torsions:
REMARK  status: ('A' for Active; 'I' for Inactive)
REMARK   20  A    between atoms: CA   and  CB  
REMARK   21  A    between atoms: CB   and  CG  
REMARK   22  A    between atoms: CZ   and  OH  
ROOT
ATOM     60  CA  TYR A  73     -13.212  10.166  17.260  1.00 12.17     0.180 C 
ENDROOT
BRANCH  60  61
ATOM     61  CB  TYR A  73     -13.301   8.846  16.517  1.00 12.84     0.073 C 
BRANCH  61  62
ATOM     62  CG  TYR A  73     -13.550   7.686  17.416  1.00 15.89    -0.056 A 
ATOM     63  CD1 TYR A  73     -13.812   7.868  18.756  1.00 16.00     0.010 A 
ATOM     64  CE1 TYR A  73     -14.015   6.781  19.606  1.00 13.55     0.037 A 
ATOM     65  CZ  TYR A  73     -13.950   5.501  19.095  1.00 18.13     0.065 A 
ATOM     66  CE2 TYR A  73     -13.690   5.291  17.761  1.00 15.89     0.037 A 
ATOM     67  CD2 TYR A  73     -13.492   6.386  16.928  1.00 21.86     0.010 A 
BRANCH  65  68
ATOM     68  OH  TYR A  73     -14.152   4.416  19.913  1.00 12.12    -0.361 OA
ATOM     69  H08 TYR A  73     -14.159   3.614  19.386  1.00 12.12     0.217 HD
ENDBRANCH  65  68
ENDBRANCH  61  62
ENDBRANCH  60  61
END_RES TYR A  73
BEGIN_RES PHE A  77
REMARK  2 active torsions:
REMARK  status: ('A' for Active; 'I' for Inactive)
REMARK   23  A    between atoms: CA   and  CB  
REMARK   24  A    between atoms: CB   and  CG  
ROOT
ATOM     70  CA  PHE A  77      -8.400  10.581  20.110  1.00 17.17     0.180 C 
ENDROOT
BRANCH  70  71
ATOM     71  CB  PHE A  77      -8.228   9.750  18.851  1.00 10.44     0.073 C 
BRANCH  71  72
ATOM     72  CG  PHE A  77      -8.645   8.322  19.010  1.00  6.07    -0.056 A 
ATOM     73  CD2 PHE A  77      -7.755   7.380  19.474  1.00  9.61     0.007 A 
ATOM     74  CE2 PHE A  77      -8.135   6.052  19.626  1.00  1.00     0.001 A 
ATOM     75  CZ  PHE A  77      -9.425   5.661  19.311  1.00  1.92     0.000 A 
ATOM     76  CE1 PHE A  77     -10.328   6.591  18.847  1.00  9.25     0.001 A 
ATOM     77  CD1 PHE A  77      -9.934   7.920  18.698  1.00  9.63     0.007 A 
ENDBRANCH  71  72
ENDBRANCH  70  71
END_RES PHE A  77
BEGIN_RES LEU A  96
REMARK  2 active torsions:
REMARK  status: ('A' for Active; 'I' for Inactive)
REMARK   25  A    between atoms: CA   and  CB  
REMARK   26  A    between atoms: CB   and  CG  
ROOT
ATOM     78  CA  LEU A  96       0.717   6.481  17.359  1.00 16.08     0.177 C 
ENDROOT
BRANCH  78  79
ATOM     79  CB  LEU A  96      -0.370   7.101  18.230  1.00 18.83     0.038 C 
BRANCH  79  80
ATOM     80  CG  LEU A  96      -0.140   6.952  19.734  1.00 19.03    -0.020 C 
ATOM     81  CD1 LEU A  96      -0.865   8.068  20.451  1.00 28.17     0.009 C 
ATOM     82  CD2 LEU A  96      -0.691   5.632  20.223  1.00 22.01     0.009 C 
ENDBRANCH  79  80
ENDBRANCH  78  79
END_RES LEU A  96
BEGIN_RES VAL A  98
REMARK  1 active torsions:
REMARK  status: ('A' for Active; 'I' for Inactive)
REMARK   27  A    between atoms: CA   and  CB  
ROOT
ATOM     83  CA  VAL A  98      -3.928   2.082  14.897  1.00 19.83     0.180 C 
ENDROOT
BRANCH  83  84
ATOM     84  CB  VAL A  98      -5.203   2.807  15.281  1.00 17.87     0.009 C 
ATOM     85  CG2 VAL A  98      -5.223   3.068  16.765  1.00 29.90     0.012 C 
ATOM     86  CG1 VAL A  98      -6.401   1.980  14.865  1.00 14.79     0.012 C 
ENDBRANCH  83  84
END_RES VAL A  98
BEGIN_RES ASN A 112
REMARK  2 active torsions:
REMARK  status: ('A' for Active; 'I' for Inactive)
REMARK   28  A    between atoms: CA   and  CB  
REMARK   29  A    between atoms: CB   and  CG  
REMARK       I    between atoms: CG   and  ND2 
ROOT
ATOM     87  CA  ASN A 112     -11.790  -8.793  14.069  1.00 37.70     0.185 C 
ENDROOT
BRANCH  87  88
ATOM     88  CB  ASN A 112     -12.992  -7.945  14.465  1.00 26.24     0.137 C 
BRANCH  88  89
ATOM     89  CG  ASN A 112     -13.808  -8.558  15.581  1.00 21.77     0.217 C 
ATOM     90  ND2 ASN A 112     -14.956  -9.133  15.223  1.00  9.31    -0.370 N 
ATOM     91  H04 ASN A 112     -15.547  -9.558  15.922  1.00  9.31     0.159 HD
ATOM     92  H05 ASN A 112     -15.234  -9.142  14.252  1.00  9.31     0.159 HD
ATOM     93  OD1 ASN A 112     -13.417  -8.513  16.753  1.00 21.61    -0.274 OA
ENDBRANCH  88  89
ENDBRANCH  87  88
END_RES ASN A 112
BEGIN_RES PHE A 114
REMARK  2 active torsions:
REMARK  status: ('A' for Active; 'I' for Inactive)
REMARK   30  A    between atoms: CA   and  CB  
REMARK   31  A    between atoms: CB   and  CG  
ROOT
ATOM     94  CA  PHE A 114      -7.754  -3.619  17.012  1.00 26.06     0.180 C 
ENDROOT
BRANCH  94  95
ATOM     95  CB  PHE A 114      -8.890  -3.080  17.867  1.00 19.95     0.073 C 
BRANCH  95  96
ATOM     96  CG  PHE A 114      -9.136  -1.619  17.672  1.00 17.65    -0.056 A 
ATOM     97  CD1 PHE A 114     -10.430  -1.127  17.531  1.00 13.01     0.007 A 
ATOM     98  CE1 PHE A 114     -10.658   0.227  17.321  1.00  6.74     0.001 A 
ATOM     99  CZ  PHE A 114      -9.586   1.112  17.252  1.00  6.27     0.000 A 
ATOM    100  CE2 PHE A 114      -8.293   0.634  17.393  1.00 17.36     0.001 A 
ATOM    101  CD2 PHE A 114      -8.071  -0.731  17.603  1.00 18.39     0.007 A 
ENDBRANCH  95  96
ENDBRANCH  94  95
END_RES PHE A 114
BEGIN_RES VAL A 116
REMARK  1 active torsions:
REMARK  status: ('A' for Active; 'I' for Inactive)
REMARK   32  A    between atoms: CA   and  CB  
ROOT
ATOM    102  CA  VAL A 116      -2.467   0.283  18.565  1.00 13.48     0.180 C 
ENDROOT
BRANCH 102 103
ATOM    103  CB  VAL A 116      -3.101   1.238  19.599  1.00 20.86     0.009 C 
ATOM    104  CG1 VAL A 116      -2.596   2.663  19.356  1.00 25.01     0.012 C 
ATOM    105  CG2 VAL A 116      -4.609   1.165  19.546  1.00 25.34     0.012 C 
ENDBRANCH 102 103
END_RES VAL A 116
BEGIN_RES ILE A 123
REMARK  2 active torsions:
REMARK  status: ('A' for Active; 'I' for Inactive)
REMARK   33  A    between atoms: CA   and  CB  
REMARK   34  A    between atoms: CB   and  CG1 
ROOT
ATOM    106  CA  ILE A 123       1.557  -1.626  23.222  1.00 15.07     0.180 C 
ENDROOT
BRANCH 106 107
ATOM    107  CB  ILE A 123       1.697  -0.112  23.461  1.00 14.41     0.013 C 
ATOM    108  CG2 ILE A 123       3.106   0.210  23.926  1.00 18.35     0.012 C 
BRANCH 107 109
ATOM    109  CG1 ILE A 123       1.374   0.658  22.183  1.00 15.23     0.002 C 
ATOM    110  CD1 ILE A 123       0.213   1.612  22.328  1.00 14.67     0.005 C 
ENDBRANCH 107 109
ENDBRANCH 106 107
END_RES ILE A 123
BEGIN_RES LEU A 124
REMARK  2 active torsions:
REMARK  status: ('A' for Active; 'I' for Inactive)
REMARK   35  A    between atoms: CA   and  CB  
REMARK   36  A    between atoms: CB   and  CG  
ROOT
ATOM    111  CA  LEU A 124      -2.057  -2.686  23.524  1.00 11.86     0.177 C 
ENDROOT
BRANCH 111 112
ATOM    112  CB  LEU A 124      -2.698  -1.652  24.429  1.00 14.60     0.038 C 
BRANCH 112 113
ATOM    113  CG  LEU A 124      -2.594  -0.247  23.855  1.00 16.19    -0.020 C 
ATOM    114  CD1 LEU A 124      -3.963   0.162  23.278  1.00 22.07     0.009 C 
ATOM    115  CD2 LEU A 124      -2.131   0.703  24.931  1.00  9.12     0.009 C 
ENDBRANCH 112 113
ENDBRANCH 111 112
END_RES LEU A 124
BEGIN_RES PHE A 126
REMARK  2 active torsions:
REMARK  status: ('A' for Active; 'I' for Inactive)
REMARK   37  A    between atoms: CA   and  CB  
REMARK   38  A    between atoms: CB   and  CG  
ROOT
ATOM    116  CA  PHE A 126      -8.784  -4.792  22.233  1.00 23.15     0.180 C 
ENDROOT
BRANCH 116 117
ATOM    117  CB  PHE A 126      -9.823  -4.011  21.461  1.00 20.65     0.073 C 
BRANCH 117 118
ATOM    118  CG  PHE A 126     -10.951  -3.546  22.296  1.00 23.65    -0.056 A 
ATOM    119  CD2 PHE A 126     -10.764  -2.559  23.249  1.00 36.63     0.007 A 
ATOM    120  CE2 PHE A 126     -11.835  -2.118  24.038  1.00 36.27     0.001 A 
ATOM    121  CZ  PHE A 126     -13.094  -2.672  23.868  1.00 18.06     0.000 A 
ATOM    122  CE1 PHE A 126     -13.285  -3.655  22.917  1.00  5.50     0.001 A 
ATOM    123  CD1 PHE A 126     -12.215  -4.086  22.134  1.00 15.29     0.007 A 
ENDBRANCH 117 118
ENDBRANCH 116 117
END_RES PHE A 126
BEGIN_RES TRP A 131
REMARK  2 active torsions:
REMARK  status: ('A' for Active; 'I' for Inactive)
REMARK   39  A    between atoms: CA   and  CB  
REMARK   40  A    between atoms: CB   and  CG  
ROOT
ATOM    124  CA  TRP A 131      -8.096  -3.335  26.542  1.00 14.52     0.181 C 
ENDROOT
BRANCH 124 125
ATOM    125  CB  TRP A 131      -7.651  -1.877  26.607  1.00 13.06     0.075 C 
BRANCH 125 126
ATOM    126  CG  TRP A 131      -8.037  -1.055  25.397  1.00 16.97    -0.028 A 
ATOM    127  CD2 TRP A 131      -9.113  -0.117  25.312  1.00 11.34    -0.002 A 
ATOM    128  CE2 TRP A 131      -9.104   0.420  24.010  1.00  5.87     0.042 A 
ATOM    129  CE3 TRP A 131     -10.086   0.321  26.217  1.00  3.80     0.014 A 
ATOM    130  CZ2 TRP A 131     -10.030   1.376  23.590  1.00  1.35     0.030 A 
ATOM    131  NE1 TRP A 131      -8.071  -0.165  23.331  1.00 13.90    -0.365 N 
ATOM    132  CH2 TRP A 131     -10.973   1.789  24.499  1.00  1.00     0.002 A 
ATOM    133  CZ3 TRP A 131     -11.007   1.267  25.806  1.00  1.00     0.001 A 
ATOM    134  CD1 TRP A 131      -7.434  -1.050  24.169  1.00 17.22     0.096 A 
ATOM    135  H07 TRP A 131      -7.818   0.021  22.371  1.00 13.90     0.165 HD
ENDBRANCH 125 126
ENDBRANCH 124 125
END_RES TRP A 131
BEGIN_RES LEU A 148
REMARK  2 active torsions:
REMARK  status: ('A' for Active; 'I' for Inactive)
REMARK   41  A    between atoms: CA   and  CB  
REMARK   42  A    between atoms: CB   and  CG  
ROOT
ATOM    136  CA  LEU A 148      -9.018   3.259  29.295  1.00 16.99     0.177 C 
ENDROOT
BRANCH 136 137
ATOM    137  CB  LEU A 148      -8.166   2.574  28.236  1.00  6.39     0.038 C 
BRANCH 137 138
ATOM    138  CG  LEU A 148      -7.924   3.221  26.888  1.00  1.00    -0.020 C 
ATOM    139  CD2 LEU A 148      -6.475   3.581  26.735  1.00  1.00     0.009 C 
ATOM    140  CD1 LEU A 148      -8.795   4.461  26.792  1.00  2.71     0.009 C 
ENDBRANCH 137 138
ENDBRANCH 136 137
END_RES LEU A 148
BEGIN_RES THR A 154
REMARK  2 active torsions:
REMARK  status: ('A' for Active; 'I' for Inactive)
REMARK   43  A    between atoms: CA   and  CB  
REMARK   44  A    between atoms: CB   and  OG1 
ROOT
ATOM    141  CA  THR A 154     -15.990   3.959  24.426  1.00 20.45     0.205 C 
ENDROOT
BRANCH 141 142
ATOM    142  CB  THR A 154     -14.777   4.829  24.694  1.00 16.79     0.146 C 
ATOM    143  CG2 THR A 154     -13.606   4.370  23.846  1.00 20.24     0.042 C 
BRANCH 142 144
ATOM    144  OG1 THR A 154     -15.093   6.184  24.352  1.00 18.84    -0.393 OA
ATOM    145  H06 THR A 154     -14.331   6.597  23.939  1.00 18.84     0.210 HD
ENDBRANCH 142 144
ENDBRANCH 141 142
END_RES THR A 154
BEGIN_RES VAL A 158
REMARK  1 active torsions:
REMARK  status: ('A' for Active; 'I' for Inactive)
REMARK   45  A    between atoms: CA   and  CB  
ROOT
ATOM    146  CA  VAL A 158     -15.487  -0.189  19.892  1.00 15.49     0.180 C 
ENDROOT
BRANCH 146 147
ATOM    147  CB  VAL A 158     -14.291  -0.273  20.822  1.00  6.52     0.009 C 
ATOM    148  CG1 VAL A 158     -13.227  -1.182  20.251  1.00  1.00     0.012 C 
ATOM    149  CG2 VAL A 158     -13.750   1.107  21.034  1.00  5.99     0.012 C 
ENDBRANCH 146 147
END_RES VAL A 158
BEGIN_RES LEU A 161
REMARK  2 active torsions:
REMARK  status: ('A' for Active; 'I' for Inactive)
REMARK   46  A    between atoms: CA   and  CB  
REMARK   47  A    between atoms: CB   and  CG  
ROOT
ATOM    150  CA  LEU A 161     -18.031  -1.858  15.935  1.00 13.31     0.177 C 
ENDROOT
BRANCH 150 151
ATOM    151  CB  LEU A 161     -17.046  -0.706  16.001  1.00 14.13     0.038 C 
BRANCH 151 152
ATOM    152  CG  LEU A 161     -17.585   0.665  15.613  1.00 19.39    -0.020 C 
ATOM    153  CD2 LEU A 161     -17.882   0.711  14.134  1.00 27.75     0.009 C 
ATOM    154  CD1 LEU A 161     -16.559   1.709  15.966  1.00 18.59     0.009 C 
ENDBRANCH 151 152
ENDBRANCH 150 151
END_RES LEU A 161
BEGIN_RES GLN A 168
REMARK  3 active torsions:
REMARK  status: ('A' for Active; 'I' for Inactive)
REMARK   48  A    between atoms: CA   and  CB  
REMARK   49  A    between atoms: CB   and  CG  
REMARK   50  A    between atoms: CG   and  CD  
REMARK       I    between atoms: CD   and  NE2 
ROOT
ATOM    155  CA  GLN A 168     -22.035  -6.020   8.155  1.00 30.94     0.177 C 
ENDROOT
BRANCH 155 156
ATOM    156  CB  GLN A 168     -23.054  -5.218   8.946  1.00 41.76     0.044 C 
BRANCH 156 157
ATOM    157  CG  GLN A 168     -24.414  -5.856   9.039  1.00 61.20     0.105 C 
BRANCH 157 158
ATOM    158  CD  GLN A 168     -24.930  -5.881  10.464  1.00 75.49     0.215 C 
ATOM    159  NE2 GLN A 168     -24.018  -6.069  11.419  1.00 85.00    -0.370 N 
ATOM    160  H06 GLN A 168     -24.300  -6.098  12.389  1.00 85.00     0.159 HD
ATOM    161  H07 GLN A 168     -23.044  -6.183  11.172  1.00 85.00     0.159 HD
ATOM    162  OE1 GLN A 168     -26.137  -5.739  10.710  1.00 73.64    -0.274 OA
ENDBRANCH 157 158
ENDBRANCH 156 157
ENDBRANCH 155 156
END_RES GLN A 168
ENDMDL
MODEL 2
REMARK VINA RESULT:      -8.1      1.111      2.946
REMARK  Name = human_CD1d_NP40_pred.rank_0
REMARK  35 active torsions:
REMARK  status: ('A' for Active; 'I' for Inactive)
REMARK    1  A    between atoms: O_2  and  C_23
REMARK    2  A    between atoms: O_2  and  C_24
REMARK    3  A    between atoms: C_3  and  C_5
REMARK    4  A    between atoms: O_4  and  C_25
REMARK    5  A    between atoms: O_4  and  C_26
REMARK    6  A    between atoms: C_5  and  C_7
REMARK    7  A    between atoms: O_6  and  C_27
REMARK    8  A    between atoms: O_6  and  C_28
REMARK    9  A    between atoms: C_7  and  C_9
REMARK   10  A    between atoms: O_8  and  C_29
REMARK   11  A    between atoms: O_8  and  C_30
REMARK   12  A    between atoms: C_9  and  C_11
REMARK   13  A    between atoms: O_10  and  C_31
REMARK   14  A    between atoms: O_10  and  C_32
REMARK   15  A    between atoms: C_11  and  C_13
REMARK   16  A    between atoms: O_12  and  C_33
REMARK   17  A    between atoms: O_12  and  C_34
REMARK   18  A    between atoms: C_13  and  C_15
REMARK   19  A    between atoms: O_14  and  C_35
REMARK   20  A    between atoms: O_14  and  C_36
REMARK   21  A    between atoms: C_15  and  C_17
REMARK   22  A    between atoms: O_16  and  C_37
REMARK   23  A    between atoms: O_16  and  C_38
REMARK   24  A    between atoms: C_17  and  C_19
REMARK   25  A    between atoms: O_18  and  C_39
REMARK   26  A    between atoms: O_18  and  C_40
REMARK   27  A    between atoms: C_24  and  C_25
REMARK   28  A    between atoms: C_26  and  C_27
REMARK   29  A    between atoms: C_28  and  C_29
REMARK   30  A    between atoms: C_30  and  C_31
REMARK   31  A    between atoms: C_32  and  C_33
REMARK   32  A    between atoms: C_34  and  C_35
REMARK   33  A    between atoms: C_36  and  C_37
REMARK   34  A    between atoms: C_38  and  C_39
REMARK   35  A    between atoms: C_40  and  C_41
REMARK                            x       y       z     vdW  Elec       q    Type
REMARK                         _______ _______ _______ _____ _____    ______ ____
ROOT
ATOM      1  O   UNL     1     -12.863  -0.369  13.489  0.00  0.00    +0.000 OA
ENDROOT
BRANCH   1   2
ATOM      2  C   UNL     1     -12.312   0.404  12.402  0.00  0.00    +0.000 C 
BRANCH   2   3
ATOM      3  C   UNL     1     -11.970   1.822  12.888  0.00  0.00    +0.000 C 
BRANCH   3   4
ATOM      4  O   UNL     1     -10.540   2.043  12.781  0.00  0.00    +0.000 OA
BRANCH   4   5
ATOM      5  C   UNL     1     -10.259   3.306  12.143  0.00  0.00    +0.000 C 
BRANCH   5   6
ATOM      6  C   UNL     1      -8.772   3.523  12.094  0.00  0.00    +0.000 C 
BRANCH   6   7
ATOM      7  O   UNL     1      -8.416   4.040  10.767  0.00  0.00    +0.000 OA
BRANCH   7   8
ATOM      8  C   UNL     1      -9.493   4.641  10.052  0.00  0.00    +0.000 C 
BRANCH   8   9
ATOM      9  C   UNL     1      -9.396   4.309   8.556  0.00  0.00    +0.000 C 
BRANCH   9  10
ATOM     10  O   UNL     1      -9.684   5.518   7.775  0.00  0.00    +0.000 OA
BRANCH  10  11
ATOM     11  C   UNL     1     -10.463   5.214   6.568  0.00  0.00    +0.000 C 
BRANCH  11  12
ATOM     12  C   UNL     1     -11.968   5.285   6.886  0.00  0.00    +0.000 C 
BRANCH  12  13
ATOM     13  O   UNL     1     -12.582   3.970   6.666  0.00  0.00    +0.000 OA
BRANCH  13  14
ATOM     14  C   UNL     1     -14.015   4.063   6.457  0.00  0.00    +0.000 C 
BRANCH  14  15
ATOM     15  C   UNL     1     -14.755   3.084   7.432  0.00  0.00    +0.000 C 
BRANCH  15  16
ATOM     16  O   UNL     1     -16.076   2.781   6.896  0.00  0.00    +0.000 OA
BRANCH  16  17
ATOM     17  C   UNL     1     -17.036   2.518   7.929  0.00  0.00    +0.000 C 
BRANCH  17  18
ATOM     18  C   UNL     1     -16.389   1.738   9.076  0.00  0.00    +0.000 C 
BRANCH  18  19
ATOM     19  O   UNL     1     -17.398   1.028   9.855  0.00  0.00    +0.000 OA
BRANCH  19  20
ATOM     20  C   UNL     1     -17.091  -0.361   9.945  0.00  0.00    +0.000 C 
BRANCH  20  22
ATOM     21  O   UNL     1     -15.008  -1.166  10.832  0.00  0.00    +0.000 OA
ATOM     22  C   UNL     1     -15.615  -0.618   9.666  0.00  0.00    +0.000 C 
ENDBRANCH  20  22
ENDBRANCH  19  20
ENDBRANCH  18  19
ENDBRANCH  17  18
ENDBRANCH  16  17
ENDBRANCH  15  16
ENDBRANCH  14  15
ENDBRANCH  13  14
ENDBRANCH  12  13
ENDBRANCH  11  12
ENDBRANCH  10  11
ENDBRANCH   9  10
ENDBRANCH   8   9
ENDBRANCH   7   8
ENDBRANCH   6   7
ENDBRANCH   5   6
ENDBRANCH   4   5
ENDBRANCH   3   4
ENDBRANCH   2   3
ENDBRANCH   1   2
BRANCH   1  23
ATOM     23  C   UNL     1     -13.394   0.481  14.543  0.00  0.00    +0.000 C 
BRANCH  23  24
ATOM     24  C   UNL     1     -13.217  -0.209  15.882  0.00  0.00    +0.000 C 
BRANCH  24  25
ATOM     25  O   UNL     1     -11.920   0.149  16.421  0.00  0.00    +0.000 OA
BRANCH  25  26
ATOM     26  C   UNL     1     -11.977   0.920  17.648  0.00  0.00    +0.000 C 
BRANCH  26  27
ATOM     27  C   UNL     1     -11.560   2.378  17.360  0.00  0.00    +0.000 C 
BRANCH  27  28
ATOM     28  O   UNL     1     -10.497   2.398  16.394  0.00  0.00    +0.000 OA
BRANCH  28  32
ATOM     29  C   UNL     1      -9.713   6.163  14.771  0.00  0.00    +0.000 A 
ATOM     30  C   UNL     1      -8.696   5.342  15.180  0.00  0.00    +0.000 A 
ATOM     31  C   UNL     1      -8.973   4.106  15.721  0.00  0.00    +0.000 A 
ATOM     32  C   UNL     1     -10.289   3.665  15.836  0.00  0.00    +0.000 A 
ATOM     33  C   UNL     1     -11.270   4.506  15.461  0.00  0.00    +0.000 A 
ATOM     34  C   UNL     1     -10.997   5.748  14.925  0.00  0.00    +0.000 A 
BRANCH  29  35
ATOM     35  C   UNL     1      -9.387   7.505  14.182  0.00  0.00    +0.000 C 
BRANCH  35  36
ATOM     36  C   UNL     1      -9.073   8.506  15.286  0.00  0.00    +0.000 C 
BRANCH  36  37
ATOM     37  C   UNL     1      -7.816   9.302  14.942  0.00  0.00    +0.000 C 
BRANCH  37  38
ATOM     38  C   UNL     1      -6.673   9.107  15.930  0.00  0.00    +0.000 C 
BRANCH  38  39
ATOM     39  C   UNL     1      -6.121   7.663  15.843  0.00  0.00    +0.000 C 
BRANCH  39  40
ATOM     40  C   UNL     1      -5.999   7.059  17.238  0.00  0.00    +0.000 C 
BRANCH  40  41
ATOM     41  C   UNL     1      -4.702   7.471  17.900  0.00  0.00    +0.000 C 
BRANCH  41  43
ATOM     42  C   UNL     1      -4.481   5.979  19.897  0.00  0.00    +0.000 C 
ATOM     43  C   UNL     1      -4.019   6.226  18.469  0.00  0.00    +0.000 C 
ENDBRANCH  41  43
ENDBRANCH  40  41
ENDBRANCH  39  40
ENDBRANCH  38  39
ENDBRANCH  37  38
ENDBRANCH  36  37
ENDBRANCH  35  36
ENDBRANCH  29  35
ENDBRANCH  28  32
ENDBRANCH  27  28
ENDBRANCH  26  27
ENDBRANCH  25  26
ENDBRANCH  24  25
ENDBRANCH  23  24
ENDBRANCH   1  23
TORSDOF 35
BEGIN_RES LEU A  10
REMARK  2 active torsions:
REMARK  status: ('A' for Active; 'I' for Inactive)
REMARK    1  A    between atoms: CA   and  CB  
REMARK    2  A    between atoms: CB   and  CG  
ROOT
ATOM      1  CA  LEU A  10     -10.775  -4.871   5.898  1.00 25.14     0.177 C 
ENDROOT
BRANCH   1   2
ATOM      2  CB  LEU A  10     -12.191  -4.387   6.226  1.00 17.87     0.038 C 
BRANCH   2   3
ATOM      3  CG  LEU A  10     -12.342  -2.866   6.287  1.00 24.95    -0.020 C 
ATOM      4  CD2 LEU A  10     -12.953  -2.489   7.593  1.00 26.38     0.009 C 
ATOM      5  CD1 LEU A  10     -13.189  -2.357   5.133  1.00 28.12     0.009 C 
ENDBRANCH   2   3
ENDBRANCH   1   2
END_RES LEU A  10
BEGIN_RES CYS A  12
REMARK  2 active torsions:
REMARK  status: ('A' for Active; 'I' for Inactive)
REMARK    3  A    between atoms: CA   and  CB  
REMARK    4  A    between atoms: CB   and  SG  
ROOT
ATOM      6  CA  CYS A  12      -8.555   0.470   8.750  1.00 23.16     0.185 C 
ENDROOT
BRANCH   6   7
ATOM      7  CB  CYS A  12      -9.828   0.763   9.555  1.00 20.43     0.105 C 
BRANCH   7   8
ATOM      8  SG  CYS A  12     -11.348   1.010   8.586  1.00 24.64    -0.180 SA
ATOM      9  H04 CYS A  12     -11.046   1.051   7.282  1.00 24.64     0.101 HD
ENDBRANCH   7   8
ENDBRANCH   6   7
END_RES CYS A  12
BEGIN_RES GLN A  14
REMARK  3 active torsions:
REMARK  status: ('A' for Active; 'I' for Inactive)
REMARK    5  A    between atoms: CA   and  CB  
REMARK    6  A    between atoms: CB   and  CG  
REMARK    7  A    between atoms: CG   and  CD  
REMARK       I    between atoms: CD   and  NE2 
ROOT
ATOM     10  CA  GLN A  14      -4.645   5.402  11.377  1.00 10.43     0.177 C 
ENDROOT
BRANCH  10  11
ATOM     11  CB  GLN A  14      -5.541   5.549  12.608  1.00 14.45     0.044 C 
BRANCH  11  12
ATOM     12  CG  GLN A  14      -6.640   6.575  12.452  1.00 13.74     0.105 C 
BRANCH  12  13
ATOM     13  CD  GLN A  14      -6.104   7.953  12.149  1.00 16.29     0.215 C 
ATOM     14  NE2 GLN A  14      -6.789   8.672  11.286  1.00  8.57    -0.370 N 
ATOM     15  H06 GLN A  14      -6.479   9.602  11.045  1.00  8.57     0.159 HD
ATOM     16  H07 GLN A  14      -7.625   8.293  10.864  1.00  8.57     0.159 HD
ATOM     17  OE1 GLN A  14      -5.089   8.367  12.687  1.00 23.55    -0.274 OA
ENDBRANCH  12  13
ENDBRANCH  11  12
ENDBRANCH  10  11
END_RES GLN A  14
BEGIN_RES SER A  16
REMARK  2 active torsions:
REMARK  status: ('A' for Active; 'I' for Inactive)
REMARK    8  A    between atoms: CA   and  CB  
REMARK    9  A    between atoms: CB   and  OG  
ROOT
ATOM     18  CA  SER A  16      -1.305  10.019  14.282  1.00  2.34     0.200 C 
ENDROOT
BRANCH  18  19
ATOM     19  CB  SER A  16      -2.242   9.935  15.479  1.00  3.12     0.199 C 
BRANCH  19  20
ATOM     20  OG  SER A  16      -3.458   9.310  15.109  1.00  1.00    -0.398 OA
ATOM     21  H04 SER A  16      -4.042   9.270  15.870  1.00  1.00     0.209 HD
ENDBRANCH  19  20
ENDBRANCH  18  19
END_RES SER A  16
BEGIN_RES LEU A  32
REMARK  2 active torsions:
REMARK  status: ('A' for Active; 'I' for Inactive)
REMARK   10  A    between atoms: CA   and  CB  
REMARK   11  A    between atoms: CB   and  CG  
ROOT
ATOM     22  CA  LEU A  32     -10.272  -4.106   1.587  1.00 16.16     0.177 C 
ENDROOT
BRANCH  22  23
ATOM     23  CB  LEU A  32     -11.613  -3.858   0.880  1.00 12.35     0.038 C 
BRANCH  23  24
ATOM     24  CG  LEU A  32     -12.625  -4.989   1.155  1.00  9.77    -0.020 C 
ATOM     25  CD1 LEU A  32     -13.041  -4.980   2.607  1.00  4.35     0.009 C 
ATOM     26  CD2 LEU A  32     -13.840  -4.847   0.277  1.00 10.60     0.009 C 
ENDBRANCH  23  24
ENDBRANCH  22  23
END_RES LEU A  32
BEGIN_RES HIS A  38
REMARK  2 active torsions:
REMARK  status: ('A' for Active; 'I' for Inactive)
REMARK   12  A    between atoms: CA   and  CB  
REMARK   13  A    between atoms: CB   and  CG  
ROOT
ATOM     27  CA  HIS A  38     -10.959   4.941   1.621  1.00 16.94     0.182 C 
ENDROOT
BRANCH  27  28
ATOM     28  CB  HIS A  38     -11.810   4.840   2.881  1.00 15.47     0.095 C 
BRANCH  28  29
ATOM     29  CG  HIS A  38     -12.970   3.907   2.753  1.00 18.62     0.053 A 
ATOM     30  CD2 HIS A  38     -14.142   4.032   2.085  1.00 15.06     0.116 A 
ATOM     31  NE2 HIS A  38     -14.839   2.866   2.274  1.00 18.12    -0.359 N 
ATOM     32  CE1 HIS A  38     -14.124   2.055   3.030  1.00 14.78     0.207 A 
ATOM     33  H06 HIS A  38     -15.753   2.662   1.895  1.00 18.12     0.166 HD
ATOM     34  ND1 HIS A  38     -12.993   2.658   3.334  1.00 16.58    -0.247 NA
ENDBRANCH  28  29
ENDBRANCH  27  28
END_RES HIS A  38
BEGIN_RES TRP A  63
REMARK  2 active torsions:
REMARK  status: ('A' for Active; 'I' for Inactive)
REMARK   14  A    between atoms: CA   and  CB  
REMARK   15  A    between atoms: CB   and  CG  
ROOT
ATOM     35  CA  TRP A  63     -22.437   6.257   6.543  1.00 27.04     0.181 C 
ENDROOT
BRANCH  35  36
ATOM     36  CB  TRP A  63     -22.360   6.642   5.068  1.00 31.37     0.075 C 
BRANCH  36  37
ATOM     37  CG  TRP A  63     -20.955   6.863   4.548  1.00 34.37    -0.028 A 
ATOM     38  CD2 TRP A  63     -19.879   5.915   4.528  1.00 33.79    -0.002 A 
ATOM     39  CE3 TRP A  63     -19.729   4.603   4.983  1.00 32.99     0.014 A 
ATOM     40  CE2 TRP A  63     -18.785   6.539   3.889  1.00 35.84     0.042 A 
ATOM     41  CZ3 TRP A  63     -18.512   3.965   4.792  1.00 32.93     0.001 A 
ATOM     42  CH2 TRP A  63     -17.443   4.613   4.153  1.00 39.24     0.002 A 
ATOM     43  CZ2 TRP A  63     -17.561   5.898   3.695  1.00 37.99     0.030 A 
ATOM     44  NE1 TRP A  63     -19.182   7.802   3.542  1.00 37.98    -0.365 N 
ATOM     45  H06 TRP A  63     -18.612   8.487   3.068  1.00 37.98     0.165 HD
ATOM     46  CD1 TRP A  63     -20.483   7.985   3.943  1.00 38.16     0.096 A 
ENDBRANCH  36  37
ENDBRANCH  35  36
END_RES TRP A  63
BEGIN_RES LEU A  66
REMARK  2 active torsions:
REMARK  status: ('A' for Active; 'I' for Inactive)
REMARK   16  A    between atoms: CA   and  CB  
REMARK   17  A    between atoms: CB   and  CG  
ROOT
ATOM     47  CA  LEU A  66     -20.004   6.489  11.120  1.00 10.90     0.177 C 
ENDROOT
BRANCH  47  48
ATOM     48  CB  LEU A  66     -19.626   5.453  10.069  1.00 13.57     0.038 C 
BRANCH  48  49
ATOM     49  CG  LEU A  66     -19.356   4.030  10.555  1.00  8.73    -0.020 C 
ATOM     50  CD1 LEU A  66     -19.241   3.994  12.057  1.00 14.23     0.009 C 
ATOM     51  CD2 LEU A  66     -20.492   3.147  10.103  1.00  1.92     0.009 C 
ENDBRANCH  48  49
ENDBRANCH  47  48
END_RES LEU A  66
BEGIN_RES PHE A  70
REMARK  2 active torsions:
REMARK  status: ('A' for Active; 'I' for Inactive)
REMARK   18  A    between atoms: CA   and  CB  
REMARK   19  A    between atoms: CB   and  CG  
ROOT
ATOM     52  CA  PHE A  70     -14.974   9.434  13.165  1.00  8.78     0.180 C 
ENDROOT
BRANCH  52  53
ATOM     53  CB  PHE A  70     -14.707   9.132  11.681  1.00  6.33     0.073 C 
BRANCH  53  54
ATOM     54  CG  PHE A  70     -14.081   7.784  11.448  1.00  3.42    -0.056 A 
ATOM     55  CD1 PHE A  70     -13.815   7.331  10.165  1.00 13.88     0.007 A 
ATOM     56  CE1 PHE A  70     -13.273   6.051   9.952  1.00 12.71     0.001 A 
ATOM     57  CZ  PHE A  70     -12.995   5.217  11.036  1.00  4.21     0.000 A 
ATOM     58  CE2 PHE A  70     -13.254   5.659  12.320  1.00  2.83     0.001 A 
ATOM     59  CD2 PHE A  70     -13.795   6.940  12.522  1.00  1.00     0.007 A 
ENDBRANCH  53  54
ENDBRANCH  52  53
END_RES PHE A  70
BEGIN_RES TYR A  73
REMARK  3 active torsions:
REMARK  status: ('A' for Active; 'I' for Inactive)
REMARK   20  A    between atoms: CA   and  CB  
REMARK   21  A    between atoms: CB   and  CG  
REMARK   22  A    between atoms: CZ   and  OH  
ROOT
ATOM     60  CA  TYR A  73     -13.212  10.166  17.260  1.00 12.17     0.180 C 
ENDROOT
BRANCH  60  61
ATOM     61  CB  TYR A  73     -13.301   8.846  16.517  1.00 12.84     0.073 C 
BRANCH  61  62
ATOM     62  CG  TYR A  73     -13.507   7.681  17.420  1.00 15.89    -0.056 A 
ATOM     63  CD1 TYR A  73     -13.957   6.474  16.933  1.00 16.00     0.010 A 
ATOM     64  CE1 TYR A  73     -14.180   5.390  17.781  1.00 13.55     0.037 A 
ATOM     65  CZ  TYR A  73     -13.946   5.531  19.135  1.00 18.13     0.065 A 
ATOM     66  CE2 TYR A  73     -13.495   6.725  19.647  1.00 15.89     0.037 A 
ATOM     67  CD2 TYR A  73     -13.278   7.794  18.787  1.00 21.86     0.010 A 
BRANCH  65  68
ATOM     68  OH  TYR A  73     -14.154   4.475  19.988  1.00 12.12    -0.361 OA
ATOM     69  H08 TYR A  73     -13.330   3.999  20.115  1.00 12.12     0.217 HD
ENDBRANCH  65  68
ENDBRANCH  61  62
ENDBRANCH  60  61
END_RES TYR A  73
BEGIN_RES PHE A  77
REMARK  2 active torsions:
REMARK  status: ('A' for Active; 'I' for Inactive)
REMARK   23  A    between atoms: CA   and  CB  
REMARK   24  A    between atoms: CB   and  CG  
ROOT
ATOM     70  CA  PHE A  77      -8.400  10.581  20.110  1.00 17.17     0.180 C 
ENDROOT
BRANCH  70  71
ATOM     71  CB  PHE A  77      -8.228   9.750  18.851  1.00 10.44     0.073 C 
BRANCH  71  72
ATOM     72  CG  PHE A  77      -8.590   8.308  19.026  1.00  6.07    -0.056 A 
ATOM     73  CD2 PHE A  77      -9.606   7.748  18.286  1.00  9.61     0.007 A 
ATOM     74  CE2 PHE A  77      -9.948   6.409  18.441  1.00  1.00     0.001 A 
ATOM     75  CZ  PHE A  77      -9.260   5.621  19.348  1.00  1.92     0.000 A 
ATOM     76  CE1 PHE A  77      -8.240   6.166  20.094  1.00  9.25     0.001 A 
ATOM     77  CD1 PHE A  77      -7.908   7.510  19.930  1.00  9.63     0.007 A 
ENDBRANCH  71  72
ENDBRANCH  70  71
END_RES PHE A  77
BEGIN_RES LEU A  96
REMARK  2 active torsions:
REMARK  status: ('A' for Active; 'I' for Inactive)
REMARK   25  A    between atoms: CA   and  CB  
REMARK   26  A    between atoms: CB   and  CG  
ROOT
ATOM     78  CA  LEU A  96       0.717   6.481  17.359  1.00 16.08     0.177 C 
ENDROOT
BRANCH  78  79
ATOM     79  CB  LEU A  96      -0.370   7.101  18.230  1.00 18.83     0.038 C 
BRANCH  79  80
ATOM     80  CG  LEU A  96      -0.234   6.803  19.723  1.00 19.03    -0.020 C 
ATOM     81  CD1 LEU A  96      -1.258   7.618  20.478  1.00 28.17     0.009 C 
ATOM     82  CD2 LEU A  96      -0.493   5.339  19.994  1.00 22.01     0.009 C 
ENDBRANCH  79  80
ENDBRANCH  78  79
END_RES LEU A  96
BEGIN_RES VAL A  98
REMARK  1 active torsions:
REMARK  status: ('A' for Active; 'I' for Inactive)
REMARK   27  A    between atoms: CA   and  CB  
ROOT
ATOM     83  CA  VAL A  98      -3.928   2.082  14.897  1.00 19.83     0.180 C 
ENDROOT
BRANCH  83  84
ATOM     84  CB  VAL A  98      -5.203   2.807  15.281  1.00 17.87     0.009 C 
ATOM     85  CG2 VAL A  98      -4.959   4.293  15.326  1.00 29.90     0.012 C 
ATOM     86  CG1 VAL A  98      -5.689   2.301  16.623  1.00 14.79     0.012 C 
ENDBRANCH  83  84
END_RES VAL A  98
BEGIN_RES ASN A 112
REMARK  2 active torsions:
REMARK  status: ('A' for Active; 'I' for Inactive)
REMARK   28  A    between atoms: CA   and  CB  
REMARK   29  A    between atoms: CB   and  CG  
REMARK       I    between atoms: CG   and  ND2 
ROOT
ATOM     87  CA  ASN A 112     -11.790  -8.793  14.069  1.00 37.70     0.185 C 
ENDROOT
BRANCH  87  88
ATOM     88  CB  ASN A 112     -12.992  -7.945  14.465  1.00 26.24     0.137 C 
BRANCH  88  89
ATOM     89  CG  ASN A 112     -13.821  -8.569  15.565  1.00 21.77     0.217 C 
ATOM     90  ND2 ASN A 112     -14.974  -9.123  15.190  1.00  9.31    -0.370 N 
ATOM     91  H04 ASN A 112     -15.575  -9.555  15.878  1.00  9.31     0.159 HD
ATOM     92  H05 ASN A 112     -15.248  -9.110  14.217  1.00  9.31     0.159 HD
ATOM     93  OD1 ASN A 112     -13.436  -8.552  16.740  1.00 21.61    -0.274 OA
ENDBRANCH  88  89
ENDBRANCH  87  88
END_RES ASN A 112
BEGIN_RES PHE A 114
REMARK  2 active torsions:
REMARK  status: ('A' for Active; 'I' for Inactive)
REMARK   30  A    between atoms: CA   and  CB  
REMARK   31  A    between atoms: CB   and  CG  
ROOT
ATOM     94  CA  PHE A 114      -7.754  -3.619  17.012  1.00 26.06     0.180 C 
ENDROOT
BRANCH  94  95
ATOM     95  CB  PHE A 114      -8.890  -3.080  17.867  1.00 19.95     0.073 C 
BRANCH  95  96
ATOM     96  CG  PHE A 114      -8.737  -1.634  18.211  1.00 17.65    -0.056 A 
ATOM     97  CD1 PHE A 114      -8.294  -0.718  17.261  1.00 13.01     0.007 A 
ATOM     98  CE1 PHE A 114      -8.124   0.621  17.588  1.00  6.74     0.001 A 
ATOM     99  CZ  PHE A 114      -8.400   1.064  18.878  1.00  6.27     0.000 A 
ATOM    100  CE2 PHE A 114      -8.844   0.162  19.832  1.00 17.36     0.001 A 
ATOM    101  CD2 PHE A 114      -9.011  -1.186  19.496  1.00 18.39     0.007 A 
ENDBRANCH  95  96
ENDBRANCH  94  95
END_RES PHE A 114
BEGIN_RES VAL A 116
REMARK  1 active torsions:
REMARK  status: ('A' for Active; 'I' for Inactive)
REMARK   32  A    between atoms: CA   and  CB  
ROOT
ATOM    102  CA  VAL A 116      -2.467   0.283  18.565  1.00 13.48     0.180 C 
ENDROOT
BRANCH 102 103
ATOM    103  CB  VAL A 116      -3.101   1.238  19.599  1.00 20.86     0.009 C 
ATOM    104  CG1 VAL A 116      -2.958   2.684  19.116  1.00 25.01     0.012 C 
ATOM    105  CG2 VAL A 116      -4.546   0.876  19.851  1.00 25.34     0.012 C 
ENDBRANCH 102 103
END_RES VAL A 116
BEGIN_RES ILE A 123
REMARK  2 active torsions:
REMARK  status: ('A' for Active; 'I' for Inactive)
REMARK   33  A    between atoms: CA   and  CB  
REMARK   34  A    between atoms: CB   and  CG1 
ROOT
ATOM    106  CA  ILE A 123       1.557  -1.626  23.222  1.00 15.07     0.180 C 
ENDROOT
BRANCH 106 107
ATOM    107  CB  ILE A 123       1.697  -0.112  23.461  1.00 14.41     0.013 C 
ATOM    108  CG2 ILE A 123       3.108   0.211  23.921  1.00 18.35     0.012 C 
BRANCH 107 109
ATOM    109  CG1 ILE A 123       1.369   0.659  22.185  1.00 15.23     0.002 C 
ATOM    110  CD1 ILE A 123       0.245   1.653  22.349  1.00 14.67     0.005 C 
ENDBRANCH 107 109
ENDBRANCH 106 107
END_RES ILE A 123
BEGIN_RES LEU A 124
REMARK  2 active torsions:
REMARK  status: ('A' for Active; 'I' for Inactive)
REMARK   35  A    between atoms: CA   and  CB  
REMARK   36  A    between atoms: CB   and  CG  
ROOT
ATOM    111  CA  LEU A 124      -2.057  -2.686  23.524  1.00 11.86     0.177 C 
ENDROOT
BRANCH 111 112
ATOM    112  CB  LEU A 124      -2.698  -1.652  24.429  1.00 14.60     0.038 C 
BRANCH 112 113
ATOM    113  CG  LEU A 124      -2.606  -0.249  23.849  1.00 16.19    -0.020 C 
ATOM    114  CD1 LEU A 124      -4.012   0.208  23.415  1.00 22.07     0.009 C 
ATOM    115  CD2 LEU A 124      -2.004   0.680  24.873  1.00  9.12     0.009 C 
ENDBRANCH 112 113
ENDBRANCH 111 112
END_RES LEU A 124
BEGIN_RES PHE A 126
REMARK  2 active torsions:
REMARK  status: ('A' for Active; 'I' for Inactive)
REMARK   37  A    between atoms: CA   and  CB  
REMARK   38  A    between atoms: CB   and  CG  
ROOT
ATOM    116  CA  PHE A 126      -8.784  -4.792  22.233  1.00 23.15     0.180 C 
ENDROOT
BRANCH 116 117
ATOM    117  CB  PHE A 126      -9.823  -4.011  21.461  1.00 20.65     0.073 C 
BRANCH 117 118
ATOM    118  CG  PHE A 126     -10.943  -3.531  22.299  1.00 23.65    -0.056 A 
ATOM    119  CD2 PHE A 126     -12.201  -4.095  22.186  1.00 36.63     0.007 A 
ATOM    120  CE2 PHE A 126     -13.261  -3.640  22.983  1.00 36.27     0.001 A 
ATOM    121  CZ  PHE A 126     -13.052  -2.615  23.893  1.00 18.06     0.000 A 
ATOM    122  CE1 PHE A 126     -11.797  -2.051  24.009  1.00  5.50     0.001 A 
ATOM    123  CD1 PHE A 126     -10.747  -2.512  23.215  1.00 15.29     0.007 A 
ENDBRANCH 117 118
ENDBRANCH 116 117
END_RES PHE A 126
BEGIN_RES TRP A 131
REMARK  2 active torsions:
REMARK  status: ('A' for Active; 'I' for Inactive)
REMARK   39  A    between atoms: CA   and  CB  
REMARK   40  A    between atoms: CB   and  CG  
ROOT
ATOM    124  CA  TRP A 131      -8.096  -3.335  26.542  1.00 14.52     0.181 C 
ENDROOT
BRANCH 124 125
ATOM    125  CB  TRP A 131      -7.651  -1.877  26.607  1.00 13.06     0.075 C 
BRANCH 125 126
ATOM    126  CG  TRP A 131      -8.017  -1.061  25.387  1.00 16.97    -0.028 A 
ATOM    127  CD2 TRP A 131      -9.073  -0.102  25.289  1.00 11.34    -0.002 A 
ATOM    128  CE2 TRP A 131      -9.050   0.421  23.981  1.00  5.87     0.042 A 
ATOM    129  CE3 TRP A 131     -10.040   0.365  26.187  1.00  3.80     0.014 A 
ATOM    130  CZ2 TRP A 131      -9.956   1.391  23.548  1.00  1.35     0.030 A 
ATOM    131  NE1 TRP A 131      -8.028  -0.193  23.311  1.00 13.90    -0.365 N 
ATOM    132  CH2 TRP A 131     -10.893   1.832  24.450  1.00  1.00     0.002 A 
ATOM    133  CZ3 TRP A 131     -10.941   1.325  25.762  1.00  1.00     0.001 A 
ATOM    134  CD1 TRP A 131      -7.410  -1.081  24.161  1.00 17.22     0.096 A 
ATOM    135  H07 TRP A 131      -7.768  -0.022  22.350  1.00 13.90     0.165 HD
ENDBRANCH 125 126
ENDBRANCH 124 125
END_RES TRP A 131
BEGIN_RES LEU A 148
REMARK  2 active torsions:
REMARK  status: ('A' for Active; 'I' for Inactive)
REMARK   41  A    between atoms: CA   and  CB  
REMARK   42  A    between atoms: CB   and  CG  
ROOT
ATOM    136  CA  LEU A 148      -9.018   3.259  29.295  1.00 16.99     0.177 C 
ENDROOT
BRANCH 136 137
ATOM    137  CB  LEU A 148      -8.166   2.574  28.236  1.00  6.39     0.038 C 
BRANCH 137 138
ATOM    138  CG  LEU A 148      -7.310   3.379  27.280  1.00  1.00    -0.020 C 
ATOM    139  CD2 LEU A 148      -8.092   3.725  26.046  1.00  1.00     0.009 C 
ATOM    140  CD1 LEU A 148      -6.089   2.552  26.923  1.00  2.71     0.009 C 
ENDBRANCH 137 138
ENDBRANCH 136 137
END_RES LEU A 148
BEGIN_RES THR A 154
REMARK  2 active torsions:
REMARK  status: ('A' for Active; 'I' for Inactive)
REMARK   43  A    between atoms: CA   and  CB  
REMARK   44  A    between atoms: CB   and  OG1 
ROOT
ATOM    141  CA  THR A 154     -15.990   3.959  24.426  1.00 20.45     0.205 C 
ENDROOT
BRANCH 141 142
ATOM    142  CB  THR A 154     -14.777   4.829  24.694  1.00 16.79     0.146 C 
ATOM    143  CG2 THR A 154     -13.630   4.421  23.790  1.00 20.24     0.042 C 
BRANCH 142 144
ATOM    144  OG1 THR A 154     -15.116   6.195  24.423  1.00 18.84    -0.393 OA
ATOM    145  H06 THR A 154     -16.071   6.289  24.399  1.00 18.84     0.210 HD
ENDBRANCH 142 144
ENDBRANCH 141 142
END_RES THR A 154
BEGIN_RES VAL A 158
REMARK  1 active torsions:
REMARK  status: ('A' for Active; 'I' for Inactive)
REMARK   45  A    between atoms: CA   and  CB  
ROOT
ATOM    146  CA  VAL A 158     -15.487  -0.189  19.892  1.00 15.49     0.180 C 
ENDROOT
BRANCH 146 147
ATOM    147  CB  VAL A 158     -14.291  -0.273  20.822  1.00  6.52     0.009 C 
ATOM    148  CG1 VAL A 158     -13.269  -1.255  20.298  1.00  1.00     0.012 C 
ATOM    149  CG2 VAL A 158     -13.692   1.093  20.958  1.00  5.99     0.012 C 
ENDBRANCH 146 147
END_RES VAL A 158
BEGIN_RES LEU A 161
REMARK  2 active torsions:
REMARK  status: ('A' for Active; 'I' for Inactive)
REMARK   46  A    between atoms: CA   and  CB  
REMARK   47  A    between atoms: CB   and  CG  
ROOT
ATOM    150  CA  LEU A 161     -18.031  -1.858  15.935  1.00 13.31     0.177 C 
ENDROOT
BRANCH 150 151
ATOM    151  CB  LEU A 161     -17.046  -0.706  16.001  1.00 14.13     0.038 C 
BRANCH 151 152
ATOM    152  CG  LEU A 161     -17.399   0.531  15.184  1.00 19.39    -0.020 C 
ATOM    153  CD2 LEU A 161     -18.848   0.899  15.393  1.00 27.75     0.009 C 
ATOM    154  CD1 LEU A 161     -17.144   0.242  13.729  1.00 18.59     0.009 C 
ENDBRANCH 151 152
ENDBRANCH 150 151
END_RES LEU A 161
BEGIN_RES GLN A 168
REMARK  3 active torsions:
REMARK  status: ('A' for Active; 'I' for Inactive)
REMARK   48  A    between atoms: CA   and  CB  
REMARK   49  A    between atoms: CB   and  CG  
REMARK   50  A    between atoms: CG   and  CD  
REMARK       I    between atoms: CD   and  NE2 
ROOT
ATOM    155  CA  GLN A 168     -22.035  -6.020   8.155  1.00 30.94     0.177 C 
ENDROOT
BRANCH 155 156
ATOM    156  CB  GLN A 168     -23.054  -5.218   8.946  1.00 41.76     0.044 C 
BRANCH 156 157
ATOM    157  CG  GLN A 168     -24.418  -5.848   9.025  1.00 61.20     0.105 C 
BRANCH 157 158
ATOM    158  CD  GLN A 168     -24.628  -6.579  10.337  1.00 75.49     0.215 C 
ATOM    159  NE2 GLN A 168     -23.940  -6.121  11.384  1.00 85.00    -0.370 N 
ATOM    160  H06 GLN A 168     -24.035  -6.567  12.285  1.00 85.00     0.159 HD
ATOM    161  H07 GLN A 168     -23.323  -5.328  11.276  1.00 85.00     0.159 HD
ATOM    162  OE1 GLN A 168     -25.395  -7.549  10.412  1.00 73.64    -0.274 OA
ENDBRANCH 157 158
ENDBRANCH 156 157
ENDBRANCH 155 156
END_RES GLN A 168
ENDMDL
MODEL 3
REMARK VINA RESULT:      -8.0      1.212      2.152
REMARK  Name = human_CD1d_NP40_pred.rank_0
REMARK  35 active torsions:
REMARK  status: ('A' for Active; 'I' for Inactive)
REMARK    1  A    between atoms: O_2  and  C_23
REMARK    2  A    between atoms: O_2  and  C_24
REMARK    3  A    between atoms: C_3  and  C_5
REMARK    4  A    between atoms: O_4  and  C_25
REMARK    5  A    between atoms: O_4  and  C_26
REMARK    6  A    between atoms: C_5  and  C_7
REMARK    7  A    between atoms: O_6  and  C_27
REMARK    8  A    between atoms: O_6  and  C_28
REMARK    9  A    between atoms: C_7  and  C_9
REMARK   10  A    between atoms: O_8  and  C_29
REMARK   11  A    between atoms: O_8  and  C_30
REMARK   12  A    between atoms: C_9  and  C_11
REMARK   13  A    between atoms: O_10  and  C_31
REMARK   14  A    between atoms: O_10  and  C_32
REMARK   15  A    between atoms: C_11  and  C_13
REMARK   16  A    between atoms: O_12  and  C_33
REMARK   17  A    between atoms: O_12  and  C_34
REMARK   18  A    between atoms: C_13  and  C_15
REMARK   19  A    between atoms: O_14  and  C_35
REMARK   20  A    between atoms: O_14  and  C_36
REMARK   21  A    between atoms: C_15  and  C_17
REMARK   22  A    between atoms: O_16  and  C_37
REMARK   23  A    between atoms: O_16  and  C_38
REMARK   24  A    between atoms: C_17  and  C_19
REMARK   25  A    between atoms: O_18  and  C_39
REMARK   26  A    between atoms: O_18  and  C_40
REMARK   27  A    between atoms: C_24  and  C_25
REMARK   28  A    between atoms: C_26  and  C_27
REMARK   29  A    between atoms: C_28  and  C_29
REMARK   30  A    between atoms: C_30  and  C_31
REMARK   31  A    between atoms: C_32  and  C_33
REMARK   32  A    between atoms: C_34  and  C_35
REMARK   33  A    between atoms: C_36  and  C_37
REMARK   34  A    between atoms: C_38  and  C_39
REMARK   35  A    between atoms: C_40  and  C_41
REMARK                            x       y       z     vdW  Elec       q    Type
REMARK                         _______ _______ _______ _____ _____    ______ ____
ROOT
ATOM      1  O   UNL     1     -12.055   1.107  14.069  0.00  0.00    +0.000 OA
ENDROOT
BRANCH   1   2
ATOM      2  C   UNL     1     -13.315   0.799  14.701  0.00  0.00    +0.000 C 
BRANCH   2   3
ATOM      3  C   UNL     1     -13.700  -0.663  14.417  0.00  0.00    +0.000 C 
BRANCH   3   4
ATOM      4  O   UNL     1     -12.819  -1.211  13.403  0.00  0.00    +0.000 OA
BRANCH   4   5
ATOM      5  C   UNL     1     -13.576  -1.811  12.331  0.00  0.00    +0.000 C 
BRANCH   5   6
ATOM      6  C   UNL     1     -14.115  -0.733  11.433  0.00  0.00    +0.000 C 
BRANCH   6   7
ATOM      7  O   UNL     1     -15.528  -1.017  11.153  0.00  0.00    +0.000 OA
BRANCH   7   8
ATOM      8  C   UNL     1     -16.445  -0.064  11.684  0.00  0.00    +0.000 C 
BRANCH   8   9
ATOM      9  C   UNL     1     -15.728   1.259  11.993  0.00  0.00    +0.000 C 
BRANCH   9  10
ATOM     10  O   UNL     1     -16.407   2.351  11.286  0.00  0.00    +0.000 OA
BRANCH  10  11
ATOM     11  C   UNL     1     -15.831   3.659  11.623  0.00  0.00    +0.000 C 
BRANCH  11  12
ATOM     12  C   UNL     1     -16.040   4.638  10.453  0.00  0.00    +0.000 C 
BRANCH  12  13
ATOM     13  O   UNL     1     -15.718   3.968   9.186  0.00  0.00    +0.000 OA
BRANCH  13  14
ATOM     14  C   UNL     1     -16.223   4.698   8.037  0.00  0.00    +0.000 C 
BRANCH  14  15
ATOM     15  C   UNL     1     -15.023   5.277   7.212  0.00  0.00    +0.000 C 
BRANCH  15  16
ATOM     16  O   UNL     1     -14.708   4.364   6.120  0.00  0.00    +0.000 OA
BRANCH  16  17
ATOM     17  C   UNL     1     -13.761   3.358   6.506  0.00  0.00    +0.000 C 
BRANCH  17  18
ATOM     18  C   UNL     1     -12.520   4.001   7.129  0.00  0.00    +0.000 C 
BRANCH  18  19
ATOM     19  O   UNL     1     -11.713   4.666   6.111  0.00  0.00    +0.000 OA
BRANCH  19  20
ATOM     20  C   UNL     1     -10.560   5.273   6.688  0.00  0.00    +0.000 C 
BRANCH  20  22
ATOM     21  O   UNL     1      -8.998   5.194   8.511  0.00  0.00    +0.000 OA
ATOM     22  C   UNL     1     -10.068   4.484   7.895  0.00  0.00    +0.000 C 
ENDBRANCH  20  22
ENDBRANCH  19  20
ENDBRANCH  18  19
ENDBRANCH  17  18
ENDBRANCH  16  17
ENDBRANCH  15  16
ENDBRANCH  14  15
ENDBRANCH  13  14
ENDBRANCH  12  13
ENDBRANCH  11  12
ENDBRANCH  10  11
ENDBRANCH   9  10
ENDBRANCH   8   9
ENDBRANCH   7   8
ENDBRANCH   6   7
ENDBRANCH   5   6
ENDBRANCH   4   5
ENDBRANCH   3   4
ENDBRANCH   2   3
ENDBRANCH   1   2
BRANCH   1  23
ATOM     23  C   UNL     1     -12.165   2.238  13.163  0.00  0.00    +0.000 C 
BRANCH  23  24
ATOM     24  C   UNL     1     -10.782   2.639  12.688  0.00  0.00    +0.000 C 
BRANCH  24  25
ATOM     25  O   UNL     1      -9.852   2.496  13.791  0.00  0.00    +0.000 OA
BRANCH  25  26
ATOM     26  C   UNL     1      -8.740   3.426  13.756  0.00  0.00    +0.000 C 
BRANCH  26  27
ATOM     27  C   UNL     1      -9.222   4.825  14.197  0.00  0.00    +0.000 C 
BRANCH  27  28
ATOM     28  O   UNL     1      -8.308   5.372  15.160  0.00  0.00    +0.000 OA
BRANCH  28  32
ATOM     29  C   UNL     1      -9.910   5.533  19.012  0.00  0.00    +0.000 A 
ATOM     30  C   UNL     1     -10.212   6.488  18.079  0.00  0.00    +0.000 A 
ATOM     31  C   UNL     1      -9.669   6.423  16.815  0.00  0.00    +0.000 A 
ATOM     32  C   UNL     1      -8.824   5.374  16.463  0.00  0.00    +0.000 A 
ATOM     33  C   UNL     1      -8.514   4.470  17.409  0.00  0.00    +0.000 A 
ATOM     34  C   UNL     1      -9.051   4.534  18.679  0.00  0.00    +0.000 A 
BRANCH  29  35
ATOM     35  C   UNL     1     -10.516   5.621  20.383  0.00  0.00    +0.000 C 
BRANCH  35  36
ATOM     36  C   UNL     1     -10.008   4.486  21.261  0.00  0.00    +0.000 C 
BRANCH  36  37
ATOM     37  C   UNL     1      -9.558   5.021  22.619  0.00  0.00    +0.000 C 
BRANCH  37  38
ATOM     38  C   UNL     1      -8.193   4.511  23.062  0.00  0.00    +0.000 C 
BRANCH  38  39
ATOM     39  C   UNL     1      -7.591   3.570  21.988  0.00  0.00    +0.000 C 
BRANCH  39  40
ATOM     40  C   UNL     1      -6.321   2.912  22.517  0.00  0.00    +0.000 C 
BRANCH  40  41
ATOM     41  C   UNL     1      -5.099   3.748  22.201  0.00  0.00    +0.000 C 
BRANCH  41  43
ATOM     42  C   UNL     1      -4.714   5.440  24.004  0.00  0.00    +0.000 C 
ATOM     43  C   UNL     1      -4.356   4.049  23.503  0.00  0.00    +0.000 C 
ENDBRANCH  41  43
ENDBRANCH  40  41
ENDBRANCH  39  40
ENDBRANCH  38  39
ENDBRANCH  37  38
ENDBRANCH  36  37
ENDBRANCH  35  36
ENDBRANCH  29  35
ENDBRANCH  28  32
ENDBRANCH  27  28
ENDBRANCH  26  27
ENDBRANCH  25  26
ENDBRANCH  24  25
ENDBRANCH  23  24
ENDBRANCH   1  23
TORSDOF 35
BEGIN_RES LEU A  10
REMARK  2 active torsions:
REMARK  status: ('A' for Active; 'I' for Inactive)
REMARK    1  A    between atoms: CA   and  CB  
REMARK    2  A    between atoms: CB   and  CG  
ROOT
ATOM      1  CA  LEU A  10     -10.775  -4.871   5.898  1.00 25.14     0.177 C 
ENDROOT
BRANCH   1   2
ATOM      2  CB  LEU A  10     -12.191  -4.387   6.226  1.00 17.87     0.038 C 
BRANCH   2   3
ATOM      3  CG  LEU A  10     -12.709  -3.277   5.309  1.00 24.95    -0.020 C 
ATOM      4  CD2 LEU A  10     -13.525  -2.323   6.113  1.00 26.38     0.009 C 
ATOM      5  CD1 LEU A  10     -13.530  -3.854   4.168  1.00 28.12     0.009 C 
ENDBRANCH   2   3
ENDBRANCH   1   2
END_RES LEU A  10
BEGIN_RES CYS A  12
REMARK  2 active torsions:
REMARK  status: ('A' for Active; 'I' for Inactive)
REMARK    3  A    between atoms: CA   and  CB  
REMARK    4  A    between atoms: CB   and  SG  
ROOT
ATOM      6  CA  CYS A  12      -8.555   0.470   8.750  1.00 23.16     0.185 C 
ENDROOT
BRANCH   6   7
ATOM      7  CB  CYS A  12      -9.828   0.763   9.555  1.00 20.43     0.105 C 
BRANCH   7   8
ATOM      8  SG  CYS A  12     -11.389   0.734   8.622  1.00 24.64    -0.180 SA
ATOM      9  H04 CYS A  12     -11.731  -0.534   8.361  1.00 24.64     0.101 HD
ENDBRANCH   7   8
ENDBRANCH   6   7
END_RES CYS A  12
BEGIN_RES GLN A  14
REMARK  3 active torsions:
REMARK  status: ('A' for Active; 'I' for Inactive)
REMARK    5  A    between atoms: CA   and  CB  
REMARK    6  A    between atoms: CB   and  CG  
REMARK    7  A    between atoms: CG   and  CD  
REMARK       I    between atoms: CD   and  NE2 
ROOT
ATOM     10  CA  GLN A  14      -4.645   5.402  11.377  1.00 10.43     0.177 C 
ENDROOT
BRANCH  10  11
ATOM     11  CB  GLN A  14      -5.541   5.549  12.608  1.00 14.45     0.044 C 
BRANCH  11  12
ATOM     12  CG  GLN A  14      -6.258   6.877  12.694  1.00 13.74     0.105 C 
BRANCH  12  13
ATOM     13  CD  GLN A  14      -7.086   7.166  11.465  1.00 16.29     0.215 C 
ATOM     14  NE2 GLN A  14      -7.834   6.182  11.016  1.00  8.57    -0.370 N 
ATOM     15  H06 GLN A  14      -8.410   6.318  10.198  1.00  8.57     0.159 HD
ATOM     16  H07 GLN A  14      -7.833   5.290  11.491  1.00  8.57     0.159 HD
ATOM     17  OE1 GLN A  14      -7.054   8.263  10.928  1.00 23.55    -0.274 OA
ENDBRANCH  12  13
ENDBRANCH  11  12
ENDBRANCH  10  11
END_RES GLN A  14
BEGIN_RES SER A  16
REMARK  2 active torsions:
REMARK  status: ('A' for Active; 'I' for Inactive)
REMARK    8  A    between atoms: CA   and  CB  
REMARK    9  A    between atoms: CB   and  OG  
ROOT
ATOM     18  CA  SER A  16      -1.305  10.019  14.282  1.00  2.34     0.200 C 
ENDROOT
BRANCH  18  19
ATOM     19  CB  SER A  16      -2.242   9.935  15.479  1.00  3.12     0.199 C 
BRANCH  19  20
ATOM     20  OG  SER A  16      -2.194   8.640  16.053  1.00  1.00    -0.398 OA
ATOM     21  H04 SER A  16      -2.312   8.707  17.003  1.00  1.00     0.209 HD
ENDBRANCH  19  20
ENDBRANCH  18  19
END_RES SER A  16
BEGIN_RES LEU A  32
REMARK  2 active torsions:
REMARK  status: ('A' for Active; 'I' for Inactive)
REMARK   10  A    between atoms: CA   and  CB  
REMARK   11  A    between atoms: CB   and  CG  
ROOT
ATOM     22  CA  LEU A  32     -10.272  -4.106   1.587  1.00 16.16     0.177 C 
ENDROOT
BRANCH  22  23
ATOM     23  CB  LEU A  32     -11.613  -3.858   0.880  1.00 12.35     0.038 C 
BRANCH  23  24
ATOM     24  CG  LEU A  32     -12.592  -5.033   1.077  1.00  9.77    -0.020 C 
ATOM     25  CD1 LEU A  32     -14.005  -4.598   0.767  1.00  4.35     0.009 C 
ATOM     26  CD2 LEU A  32     -12.216  -6.199   0.201  1.00 10.60     0.009 C 
ENDBRANCH  23  24
ENDBRANCH  22  23
END_RES LEU A  32
BEGIN_RES HIS A  38
REMARK  2 active torsions:
REMARK  status: ('A' for Active; 'I' for Inactive)
REMARK   12  A    between atoms: CA   and  CB  
REMARK   13  A    between atoms: CB   and  CG  
ROOT
ATOM     27  CA  HIS A  38     -10.959   4.941   1.621  1.00 16.94     0.182 C 
ENDROOT
BRANCH  27  28
ATOM     28  CB  HIS A  38     -11.810   4.840   2.881  1.00 15.47     0.095 C 
BRANCH  28  29
ATOM     29  CG  HIS A  38     -13.001   3.949   2.735  1.00 18.62     0.053 A 
ATOM     30  CD2 HIS A  38     -14.182   4.142   2.100  1.00 15.06     0.116 A 
ATOM     31  NE2 HIS A  38     -14.911   2.990   2.250  1.00 18.12    -0.359 N 
ATOM     32  CE1 HIS A  38     -14.207   2.123   2.951  1.00 14.78     0.207 A 
ATOM     33  H06 HIS A  38     -15.839   2.832   1.882  1.00 18.12     0.166 HD
ATOM     34  ND1 HIS A  38     -13.051   2.676   3.258  1.00 16.58    -0.247 NA
ENDBRANCH  28  29
ENDBRANCH  27  28
END_RES HIS A  38
BEGIN_RES TRP A  63
REMARK  2 active torsions:
REMARK  status: ('A' for Active; 'I' for Inactive)
REMARK   14  A    between atoms: CA   and  CB  
REMARK   15  A    between atoms: CB   and  CG  
ROOT
ATOM     35  CA  TRP A  63     -22.437   6.257   6.543  1.00 27.04     0.181 C 
ENDROOT
BRANCH  35  36
ATOM     36  CB  TRP A  63     -22.360   6.642   5.068  1.00 31.37     0.075 C 
BRANCH  36  37
ATOM     37  CG  TRP A  63     -20.955   6.710   4.508  1.00 34.37    -0.028 A 
ATOM     38  CD2 TRP A  63     -19.923   5.722   4.632  1.00 33.79    -0.002 A 
ATOM     39  CE3 TRP A  63     -19.826   4.494   5.291  1.00 32.99     0.014 A 
ATOM     40  CE2 TRP A  63     -18.812   6.183   3.892  1.00 35.84     0.042 A 
ATOM     41  CZ3 TRP A  63     -18.642   3.776   5.195  1.00 32.93     0.001 A 
ATOM     42  CH2 TRP A  63     -17.555   4.263   4.452  1.00 39.24     0.002 A 
ATOM     43  CZ2 TRP A  63     -17.621   5.462   3.794  1.00 37.99     0.030 A 
ATOM     44  NE1 TRP A  63     -19.157   7.391   3.350  1.00 37.98    -0.365 N 
ATOM     45  H06 TRP A  63     -18.563   7.964   2.768  1.00 37.98     0.165 HD
ATOM     46  CD1 TRP A  63     -20.442   7.698   3.727  1.00 38.16     0.096 A 
ENDBRANCH  36  37
ENDBRANCH  35  36
END_RES TRP A  63
BEGIN_RES LEU A  66
REMARK  2 active torsions:
REMARK  status: ('A' for Active; 'I' for Inactive)
REMARK   16  A    between atoms: CA   and  CB  
REMARK   17  A    between atoms: CB   and  CG  
ROOT
ATOM     47  CA  LEU A  66     -20.004   6.489  11.120  1.00 10.90     0.177 C 
ENDROOT
BRANCH  47  48
ATOM     48  CB  LEU A  66     -19.626   5.453  10.069  1.00 13.57     0.038 C 
BRANCH  48  49
ATOM     49  CG  LEU A  66     -19.538   3.996  10.523  1.00  8.73    -0.020 C 
ATOM     50  CD1 LEU A  66     -19.545   3.907  12.026  1.00 14.23     0.009 C 
ATOM     51  CD2 LEU A  66     -20.716   3.247   9.955  1.00  1.92     0.009 C 
ENDBRANCH  48  49
ENDBRANCH  47  48
END_RES LEU A  66
BEGIN_RES PHE A  70
REMARK  2 active torsions:
REMARK  status: ('A' for Active; 'I' for Inactive)
REMARK   18  A    between atoms: CA   and  CB  
REMARK   19  A    between atoms: CB   and  CG  
ROOT
ATOM     52  CA  PHE A  70     -14.974   9.434  13.165  1.00  8.78     0.180 C 
ENDROOT
BRANCH  52  53
ATOM     53  CB  PHE A  70     -14.707   9.132  11.681  1.00  6.33     0.073 C 
BRANCH  53  54
ATOM     54  CG  PHE A  70     -13.949   7.852  11.458  1.00  3.42    -0.056 A 
ATOM     55  CD1 PHE A  70     -13.489   7.097  12.526  1.00 13.88     0.007 A 
ATOM     56  CE1 PHE A  70     -12.741   5.926  12.311  1.00 12.71     0.001 A 
ATOM     57  CZ  PHE A  70     -12.452   5.508  11.012  1.00  4.21     0.000 A 
ATOM     58  CE2 PHE A  70     -12.907   6.251   9.938  1.00  2.83     0.001 A 
ATOM     59  CD2 PHE A  70     -13.654   7.419  10.165  1.00  1.00     0.007 A 
ENDBRANCH  53  54
ENDBRANCH  52  53
END_RES PHE A  70
BEGIN_RES TYR A  73
REMARK  3 active torsions:
REMARK  status: ('A' for Active; 'I' for Inactive)
REMARK   20  A    between atoms: CA   and  CB  
REMARK   21  A    between atoms: CB   and  CG  
REMARK   22  A    between atoms: CZ   and  OH  
ROOT
ATOM     60  CA  TYR A  73     -13.212  10.166  17.260  1.00 12.17     0.180 C 
ENDROOT
BRANCH  60  61
ATOM     61  CB  TYR A  73     -13.301   8.846  16.517  1.00 12.84     0.073 C 
BRANCH  61  62
ATOM     62  CG  TYR A  73     -13.525   7.683  17.419  1.00 15.89    -0.056 A 
ATOM     63  CD1 TYR A  73     -13.667   6.409  16.914  1.00 16.00     0.010 A 
ATOM     64  CE1 TYR A  73     -13.907   5.322  17.755  1.00 13.55     0.037 A 
ATOM     65  CZ  TYR A  73     -14.006   5.529  19.116  1.00 18.13     0.065 A 
ATOM     66  CE2 TYR A  73     -13.867   6.790  19.645  1.00 15.89     0.037 A 
ATOM     67  CD2 TYR A  73     -13.627   7.861  18.794  1.00 21.86     0.010 A 
BRANCH  65  68
ATOM     68  OH  TYR A  73     -14.237   4.472  19.963  1.00 12.12    -0.361 OA
ATOM     69  H08 TYR A  73     -15.153   4.485  20.248  1.00 12.12     0.217 HD
ENDBRANCH  65  68
ENDBRANCH  61  62
ENDBRANCH  60  61
END_RES TYR A  73
BEGIN_RES PHE A  77
REMARK  2 active torsions:
REMARK  status: ('A' for Active; 'I' for Inactive)
REMARK   23  A    between atoms: CA   and  CB  
REMARK   24  A    between atoms: CB   and  CG  
ROOT
ATOM     70  CA  PHE A  77      -8.400  10.581  20.110  1.00 17.17     0.180 C 
ENDROOT
BRANCH  70  71
ATOM     71  CB  PHE A  77      -8.228   9.750  18.851  1.00 10.44     0.073 C 
BRANCH  71  72
ATOM     72  CG  PHE A  77      -7.395   8.522  19.048  1.00  6.07    -0.056 A 
ATOM     73  CD2 PHE A  77      -7.399   7.861  20.255  1.00  9.61     0.007 A 
ATOM     74  CE2 PHE A  77      -6.631   6.718  20.446  1.00  1.00     0.001 A 
ATOM     75  CZ  PHE A  77      -5.849   6.231  19.413  1.00  1.92     0.000 A 
ATOM     76  CE1 PHE A  77      -5.835   6.879  18.199  1.00  9.25     0.001 A 
ATOM     77  CD1 PHE A  77      -6.609   8.025  18.021  1.00  9.63     0.007 A 
ENDBRANCH  71  72
ENDBRANCH  70  71
END_RES PHE A  77
BEGIN_RES LEU A  96
REMARK  2 active torsions:
REMARK  status: ('A' for Active; 'I' for Inactive)
REMARK   25  A    between atoms: CA   and  CB  
REMARK   26  A    between atoms: CB   and  CG  
ROOT
ATOM     78  CA  LEU A  96       0.717   6.481  17.359  1.00 16.08     0.177 C 
ENDROOT
BRANCH  78  79
ATOM     79  CB  LEU A  96      -0.370   7.101  18.230  1.00 18.83     0.038 C 
BRANCH  79  80
ATOM     80  CG  LEU A  96      -0.154   6.928  19.733  1.00 19.03    -0.020 C 
ATOM     81  CD1 LEU A  96       0.577   8.140  20.263  1.00 28.17     0.009 C 
ATOM     82  CD2 LEU A  96      -1.482   6.820  20.448  1.00 22.01     0.009 C 
ENDBRANCH  79  80
ENDBRANCH  78  79
END_RES LEU A  96
BEGIN_RES VAL A  98
REMARK  1 active torsions:
REMARK  status: ('A' for Active; 'I' for Inactive)
REMARK   27  A    between atoms: CA   and  CB  
ROOT
ATOM     83  CA  VAL A  98      -3.928   2.082  14.897  1.00 19.83     0.180 C 
ENDROOT
BRANCH  83  84
ATOM     84  CB  VAL A  98      -5.203   2.807  15.281  1.00 17.87     0.009 C 
ATOM     85  CG2 VAL A  98      -4.916   4.267  15.518  1.00 29.90     0.012 C 
ATOM     86  CG1 VAL A  98      -5.796   2.168  16.519  1.00 14.79     0.012 C 
ENDBRANCH  83  84
END_RES VAL A  98
BEGIN_RES ASN A 112
REMARK  2 active torsions:
REMARK  status: ('A' for Active; 'I' for Inactive)
REMARK   28  A    between atoms: CA   and  CB  
REMARK   29  A    between atoms: CB   and  CG  
REMARK       I    between atoms: CG   and  ND2 
ROOT
ATOM     87  CA  ASN A 112     -11.790  -8.793  14.069  1.00 37.70     0.185 C 
ENDROOT
BRANCH  87  88
ATOM     88  CB  ASN A 112     -12.992  -7.945  14.465  1.00 26.24     0.137 C 
BRANCH  88  89
ATOM     89  CG  ASN A 112     -13.945  -8.665  15.392  1.00 21.77     0.217 C 
ATOM     90  ND2 ASN A 112     -13.666  -8.595  16.693  1.00  9.31    -0.370 N 
ATOM     91  H04 ASN A 112     -14.264  -9.057  17.364  1.00  9.31     0.159 HD
ATOM     92  H05 ASN A 112     -12.856  -8.080  17.009  1.00  9.31     0.159 HD
ATOM     93  OD1 ASN A 112     -14.920  -9.283  14.948  1.00 21.61    -0.274 OA
ENDBRANCH  88  89
ENDBRANCH  87  88
END_RES ASN A 112
BEGIN_RES PHE A 114
REMARK  2 active torsions:
REMARK  status: ('A' for Active; 'I' for Inactive)
REMARK   30  A    between atoms: CA   and  CB  
REMARK   31  A    between atoms: CB   and  CG  
ROOT
ATOM     94  CA  PHE A 114      -7.754  -3.619  17.012  1.00 26.06     0.180 C 
ENDROOT
BRANCH  94  95
ATOM     95  CB  PHE A 114      -8.890  -3.080  17.867  1.00 19.95     0.073 C 
BRANCH  95  96
ATOM     96  CG  PHE A 114      -9.198  -1.641  17.604  1.00 17.65    -0.056 A 
ATOM     97  CD1 PHE A 114     -10.515  -1.198  17.519  1.00 13.01     0.007 A 
ATOM     98  CE1 PHE A 114     -10.802   0.132  17.246  1.00  6.74     0.001 A 
ATOM     99  CZ  PHE A 114      -9.767   1.044  17.057  1.00  6.27     0.000 A 
ATOM    100  CE2 PHE A 114      -8.452   0.615  17.141  1.00 17.36     0.001 A 
ATOM    101  CD2 PHE A 114      -8.171  -0.727  17.415  1.00 18.39     0.007 A 
ENDBRANCH  95  96
ENDBRANCH  94  95
END_RES PHE A 114
BEGIN_RES VAL A 116
REMARK  1 active torsions:
REMARK  status: ('A' for Active; 'I' for Inactive)
REMARK   32  A    between atoms: CA   and  CB  
ROOT
ATOM    102  CA  VAL A 116      -2.467   0.283  18.565  1.00 13.48     0.180 C 
ENDROOT
BRANCH 102 103
ATOM    103  CB  VAL A 116      -3.101   1.238  19.599  1.00 20.86     0.009 C 
ATOM    104  CG1 VAL A 116      -3.055   2.673  19.066  1.00 25.01     0.012 C 
ATOM    105  CG2 VAL A 116      -4.512   0.813  19.931  1.00 25.34     0.012 C 
ENDBRANCH 102 103
END_RES VAL A 116
BEGIN_RES ILE A 123
REMARK  2 active torsions:
REMARK  status: ('A' for Active; 'I' for Inactive)
REMARK   33  A    between atoms: CA   and  CB  
REMARK   34  A    between atoms: CB   and  CG1 
ROOT
ATOM    106  CA  ILE A 123       1.557  -1.626  23.222  1.00 15.07     0.180 C 
ENDROOT
BRANCH 106 107
ATOM    107  CB  ILE A 123       1.697  -0.112  23.461  1.00 14.41     0.013 C 
ATOM    108  CG2 ILE A 123       3.104   0.209  23.934  1.00 18.35     0.012 C 
BRANCH 107 109
ATOM    109  CG1 ILE A 123       1.382   0.658  22.181  1.00 15.23     0.002 C 
ATOM    110  CD1 ILE A 123       0.241   1.635  22.327  1.00 14.67     0.005 C 
ENDBRANCH 107 109
ENDBRANCH 106 107
END_RES ILE A 123
BEGIN_RES LEU A 124
REMARK  2 active torsions:
REMARK  status: ('A' for Active; 'I' for Inactive)
REMARK   35  A    between atoms: CA   and  CB  
REMARK   36  A    between atoms: CB   and  CG  
ROOT
ATOM    111  CA  LEU A 124      -2.057  -2.686  23.524  1.00 11.86     0.177 C 
ENDROOT
BRANCH 111 112
ATOM    112  CB  LEU A 124      -2.698  -1.652  24.429  1.00 14.60     0.038 C 
BRANCH 112 113
ATOM    113  CG  LEU A 124      -2.626  -0.252  23.838  1.00 16.19    -0.020 C 
ATOM    114  CD1 LEU A 124      -4.045   0.200  23.444  1.00 22.07     0.009 C 
ATOM    115  CD2 LEU A 124      -1.996   0.684  24.839  1.00  9.12     0.009 C 
ENDBRANCH 112 113
ENDBRANCH 111 112
END_RES LEU A 124
BEGIN_RES PHE A 126
REMARK  2 active torsions:
REMARK  status: ('A' for Active; 'I' for Inactive)
REMARK   37  A    between atoms: CA   and  CB  
REMARK   38  A    between atoms: CB   and  CG  
ROOT
ATOM    116  CA  PHE A 126      -8.784  -4.792  22.233  1.00 23.15     0.180 C 
ENDROOT
BRANCH 116 117
ATOM    117  CB  PHE A 126      -9.823  -4.011  21.461  1.00 20.65     0.073 C 
BRANCH 117 118
ATOM    118  CG  PHE A 126     -10.952  -3.548  22.295  1.00 23.65    -0.056 A 
ATOM    119  CD2 PHE A 126     -10.774  -2.543  23.230  1.00 36.63     0.007 A 
ATOM    120  CE2 PHE A 126     -11.846  -2.104  24.019  1.00 36.27     0.001 A 
ATOM    121  CZ  PHE A 126     -13.098  -2.679  23.867  1.00 18.06     0.000 A 
ATOM    122  CE1 PHE A 126     -13.281  -3.680  22.934  1.00  5.50     0.001 A 
ATOM    123  CD1 PHE A 126     -12.209  -4.109  22.150  1.00 15.29     0.007 A 
ENDBRANCH 117 118
ENDBRANCH 116 117
END_RES PHE A 126
BEGIN_RES TRP A 131
REMARK  2 active torsions:
REMARK  status: ('A' for Active; 'I' for Inactive)
REMARK   39  A    between atoms: CA   and  CB  
REMARK   40  A    between atoms: CB   and  CG  
ROOT
ATOM    124  CA  TRP A 131      -8.096  -3.335  26.542  1.00 14.52     0.181 C 
ENDROOT
BRANCH 124 125
ATOM    125  CB  TRP A 131      -7.651  -1.877  26.607  1.00 13.06     0.075 C 
BRANCH 125 126
ATOM    126  CG  TRP A 131      -8.033  -1.056  25.395  1.00 16.97    -0.028 A 
ATOM    127  CD2 TRP A 131      -9.110  -0.119  25.306  1.00 11.34    -0.002 A 
ATOM    128  CE2 TRP A 131      -9.097   0.417  24.003  1.00  5.87     0.042 A 
ATOM    129  CE3 TRP A 131     -10.087   0.317  26.207  1.00  3.80     0.014 A 
ATOM    130  CZ2 TRP A 131     -10.022   1.372  23.579  1.00  1.35     0.030 A 
ATOM    131  NE1 TRP A 131      -8.060  -0.167  23.328  1.00 13.90    -0.365 N 
ATOM    132  CH2 TRP A 131     -10.970   1.783  24.484  1.00  1.00     0.002 A 
ATOM    133  CZ3 TRP A 131     -11.009   1.261  25.791  1.00  1.00     0.001 A 
ATOM    134  CD1 TRP A 131      -7.425  -1.051  24.170  1.00 17.22     0.096 A 
ATOM    135  H07 TRP A 131      -7.803   0.019  22.370  1.00 13.90     0.165 HD
ENDBRANCH 125 126
ENDBRANCH 124 125
END_RES TRP A 131
BEGIN_RES LEU A 148
REMARK  2 active torsions:
REMARK  status: ('A' for Active; 'I' for Inactive)
REMARK   41  A    between atoms: CA   and  CB  
REMARK   42  A    between atoms: CB   and  CG  
ROOT
ATOM    136  CA  LEU A 148      -9.018   3.259  29.295  1.00 16.99     0.177 C 
ENDROOT
BRANCH 136 137
ATOM    137  CB  LEU A 148      -8.166   2.574  28.236  1.00  6.39     0.038 C 
BRANCH 137 138
ATOM    138  CG  LEU A 148      -8.021   3.163  26.848  1.00  1.00    -0.020 C 
ATOM    139  CD2 LEU A 148      -6.711   2.752  26.242  1.00  1.00     0.009 C 
ATOM    140  CD1 LEU A 148      -8.107   4.674  26.960  1.00  2.71     0.009 C 
ENDBRANCH 137 138
ENDBRANCH 136 137
END_RES LEU A 148
BEGIN_RES THR A 154
REMARK  2 active torsions:
REMARK  status: ('A' for Active; 'I' for Inactive)
REMARK   43  A    between atoms: CA   and  CB  
REMARK   44  A    between atoms: CB   and  OG1 
ROOT
ATOM    141  CA  THR A 154     -15.990   3.959  24.426  1.00 20.45     0.205 C 
ENDROOT
BRANCH 141 142
ATOM    142  CB  THR A 154     -14.777   4.829  24.694  1.00 16.79     0.146 C 
ATOM    143  CG2 THR A 154     -13.656   4.474  23.736  1.00 20.24     0.042 C 
BRANCH 142 144
ATOM    144  OG1 THR A 154     -15.137   6.202  24.497  1.00 18.84    -0.393 OA
ATOM    145  H06 THR A 154     -15.603   6.295  23.662  1.00 18.84     0.210 HD
ENDBRANCH 142 144
ENDBRANCH 141 142
END_RES THR A 154
BEGIN_RES VAL A 158
REMARK  1 active torsions:
REMARK  status: ('A' for Active; 'I' for Inactive)
REMARK   45  A    between atoms: CA   and  CB  
ROOT
ATOM    146  CA  VAL A 158     -15.487  -0.189  19.892  1.00 15.49     0.180 C 
ENDROOT
BRANCH 146 147
ATOM    147  CB  VAL A 158     -14.291  -0.273  20.822  1.00  6.52     0.009 C 
ATOM    148  CG1 VAL A 158     -13.239  -1.205  20.265  1.00  1.00     0.012 C 
ATOM    149  CG2 VAL A 158     -13.732   1.103  21.011  1.00  5.99     0.012 C 
ENDBRANCH 146 147
END_RES VAL A 158
BEGIN_RES LEU A 161
REMARK  2 active torsions:
REMARK  status: ('A' for Active; 'I' for Inactive)
REMARK   46  A    between atoms: CA   and  CB  
REMARK   47  A    between atoms: CB   and  CG  
ROOT
ATOM    150  CA  LEU A 161     -18.031  -1.858  15.935  1.00 13.31     0.177 C 
ENDROOT
BRANCH 150 151
ATOM    151  CB  LEU A 161     -17.046  -0.706  16.001  1.00 14.13     0.038 C 
BRANCH 151 152
ATOM    152  CG  LEU A 161     -17.435   0.559  15.246  1.00 19.39    -0.020 C 
ATOM    153  CD2 LEU A 161     -16.745   1.759  15.847  1.00 27.75     0.009 C 
ATOM    154  CD1 LEU A 161     -18.928   0.731  15.321  1.00 18.59     0.009 C 
ENDBRANCH 151 152
ENDBRANCH 150 151
END_RES LEU A 161
BEGIN_RES GLN A 168
REMARK  3 active torsions:
REMARK  status: ('A' for Active; 'I' for Inactive)
REMARK   48  A    between atoms: CA   and  CB  
REMARK   49  A    between atoms: CB   and  CG  
REMARK   50  A    between atoms: CG   and  CD  
REMARK       I    between atoms: CD   and  NE2 
ROOT
ATOM    155  CA  GLN A 168     -22.035  -6.020   8.155  1.00 30.94     0.177 C 
ENDROOT
BRANCH 155 156
ATOM    156  CB  GLN A 168     -23.054  -5.218   8.946  1.00 41.76     0.044 C 
BRANCH 156 157
ATOM    157  CG  GLN A 168     -24.388  -5.895   9.112  1.00 61.20     0.105 C 
BRANCH 157 158
ATOM    158  CD  GLN A 168     -24.867  -5.854  10.550  1.00 75.49     0.215 C 
ATOM    159  NE2 GLN A 168     -23.976  -6.204  11.479  1.00 85.00    -0.370 N 
ATOM    160  H06 GLN A 168     -24.236  -6.200  12.455  1.00 85.00     0.159 HD
ATOM    161  H07 GLN A 168     -23.041  -6.474  11.206  1.00 85.00     0.159 HD
ATOM    162  OE1 GLN A 168     -26.027  -5.519  10.828  1.00 73.64    -0.274 OA
ENDBRANCH 157 158
ENDBRANCH 156 157
ENDBRANCH 155 156
END_RES GLN A 168
ENDMDL
MODEL 4
REMARK VINA RESULT:      -7.9      1.141      3.182
REMARK  Name = human_CD1d_NP40_pred.rank_0
REMARK  35 active torsions:
REMARK  status: ('A' for Active; 'I' for Inactive)
REMARK    1  A    between atoms: O_2  and  C_23
REMARK    2  A    between atoms: O_2  and  C_24
REMARK    3  A    between atoms: C_3  and  C_5
REMARK    4  A    between atoms: O_4  and  C_25
REMARK    5  A    between atoms: O_4  and  C_26
REMARK    6  A    between atoms: C_5  and  C_7
REMARK    7  A    between atoms: O_6  and  C_27
REMARK    8  A    between atoms: O_6  and  C_28
REMARK    9  A    between atoms: C_7  and  C_9
REMARK   10  A    between atoms: O_8  and  C_29
REMARK   11  A    between atoms: O_8  and  C_30
REMARK   12  A    between atoms: C_9  and  C_11
REMARK   13  A    between atoms: O_10  and  C_31
REMARK   14  A    between atoms: O_10  and  C_32
REMARK   15  A    between atoms: C_11  and  C_13
REMARK   16  A    between atoms: O_12  and  C_33
REMARK   17  A    between atoms: O_12  and  C_34
REMARK   18  A    between atoms: C_13  and  C_15
REMARK   19  A    between atoms: O_14  and  C_35
REMARK   20  A    between atoms: O_14  and  C_36
REMARK   21  A    between atoms: C_15  and  C_17
REMARK   22  A    between atoms: O_16  and  C_37
REMARK   23  A    between atoms: O_16  and  C_38
REMARK   24  A    between atoms: C_17  and  C_19
REMARK   25  A    between atoms: O_18  and  C_39
REMARK   26  A    between atoms: O_18  and  C_40
REMARK   27  A    between atoms: C_24  and  C_25
REMARK   28  A    between atoms: C_26  and  C_27
REMARK   29  A    between atoms: C_28  and  C_29
REMARK   30  A    between atoms: C_30  and  C_31
REMARK   31  A    between atoms: C_32  and  C_33
REMARK   32  A    between atoms: C_34  and  C_35
REMARK   33  A    between atoms: C_36  and  C_37
REMARK   34  A    between atoms: C_38  and  C_39
REMARK   35  A    between atoms: C_40  and  C_41
REMARK                            x       y       z     vdW  Elec       q    Type
REMARK                         _______ _______ _______ _____ _____    ______ ____
ROOT
ATOM      1  O   UNL     1      -9.216   4.532  11.416  0.00  0.00    +0.000 OA
ENDROOT
BRANCH   1   2
ATOM      2  C   UNL     1      -9.136   4.176  10.020  0.00  0.00    +0.000 C 
BRANCH   2   3
ATOM      3  C   UNL     1      -9.430   5.408   9.147  0.00  0.00    +0.000 C 
BRANCH   3   4
ATOM      4  O   UNL     1      -9.446   5.022   7.749  0.00  0.00    +0.000 OA
BRANCH   4   5
ATOM      5  C   UNL     1     -10.563   5.622   7.060  0.00  0.00    +0.000 C 
BRANCH   5   6
ATOM      6  C   UNL     1     -11.481   4.543   6.558  0.00  0.00    +0.000 C 
BRANCH   6   7
ATOM      7  O   UNL     1     -12.867   5.012   6.676  0.00  0.00    +0.000 OA
BRANCH   7   8
ATOM      8  C   UNL     1     -13.835   3.979   6.838  0.00  0.00    +0.000 C 
BRANCH   8   9
ATOM      9  C   UNL     1     -15.164   4.560   7.342  0.00  0.00    +0.000 C 
BRANCH   9  10
ATOM     10  O   UNL     1     -16.086   3.461   7.650  0.00  0.00    +0.000 OA
BRANCH  10  11
ATOM     11  C   UNL     1     -15.817   2.878   8.970  0.00  0.00    +0.000 C 
BRANCH  11  12
ATOM     12  C   UNL     1     -15.678   1.349   8.846  0.00  0.00    +0.000 C 
BRANCH  12  13
ATOM     13  O   UNL     1     -16.941   0.706   9.233  0.00  0.00    +0.000 OA
BRANCH  13  14
ATOM     14  C   UNL     1     -16.724  -0.504  10.006  0.00  0.00    +0.000 C 
BRANCH  14  15
ATOM     15  C   UNL     1     -16.938  -0.200  11.529  0.00  0.00    +0.000 C 
BRANCH  15  16
ATOM     16  O   UNL     1     -15.645   0.060  12.152  0.00  0.00    +0.000 OA
BRANCH  16  17
ATOM     17  C   UNL     1     -14.749  -1.053  12.033  0.00  0.00    +0.000 C 
BRANCH  17  18
ATOM     18  C   UNL     1     -14.383  -1.597  13.416  0.00  0.00    +0.000 C 
BRANCH  18  19
ATOM     19  O   UNL     1     -13.039  -1.179  13.800  0.00  0.00    +0.000 OA
BRANCH  19  20
ATOM     20  C   UNL     1     -13.075   0.026  14.560  0.00  0.00    +0.000 C 
BRANCH  20  22
ATOM     21  O   UNL     1     -13.635  -0.495  16.838  0.00  0.00    +0.000 OA
ATOM     22  C   UNL     1     -12.545  -0.196  15.971  0.00  0.00    +0.000 C 
ENDBRANCH  20  22
ENDBRANCH  19  20
ENDBRANCH  18  19
ENDBRANCH  17  18
ENDBRANCH  16  17
ENDBRANCH  15  16
ENDBRANCH  14  15
ENDBRANCH  13  14
ENDBRANCH  12  13
ENDBRANCH  11  12
ENDBRANCH  10  11
ENDBRANCH   9  10
ENDBRANCH   8   9
ENDBRANCH   7   8
ENDBRANCH   6   7
ENDBRANCH   5   6
ENDBRANCH   4   5
ENDBRANCH   3   4
ENDBRANCH   2   3
ENDBRANCH   1   2
BRANCH   1  23
ATOM     23  C   UNL     1      -8.441   3.630  12.252  0.00  0.00    +0.000 C 
BRANCH  23  24
ATOM     24  C   UNL     1      -9.360   2.580  12.846  0.00  0.00    +0.000 C 
BRANCH  24  25
ATOM     25  O   UNL     1      -9.049   2.433  14.255  0.00  0.00    +0.000 OA
BRANCH  25  26
ATOM     26  C   UNL     1     -10.195   2.558  15.134  0.00  0.00    +0.000 C 
BRANCH  26  27
ATOM     27  C   UNL     1     -10.119   3.898  15.895  0.00  0.00    +0.000 C 
BRANCH  27  28
ATOM     28  O   UNL     1     -10.699   4.943  15.099  0.00  0.00    +0.000 OA
BRANCH  28  32
ATOM     29  C   UNL     1      -8.331   8.379  15.220  0.00  0.00    +0.000 A 
ATOM     30  C   UNL     1      -7.836   7.164  15.613  0.00  0.00    +0.000 A 
ATOM     31  C   UNL     1      -8.635   6.041  15.573  0.00  0.00    +0.000 A 
ATOM     32  C   UNL     1      -9.945   6.124  15.112  0.00  0.00    +0.000 A 
ATOM     33  C   UNL     1     -10.417   7.336  14.767  0.00  0.00    +0.000 A 
ATOM     34  C   UNL     1      -9.624   8.463  14.812  0.00  0.00    +0.000 A 
BRANCH  29  35
ATOM     35  C   UNL     1      -7.442   9.589  15.269  0.00  0.00    +0.000 C 
BRANCH  35  36
ATOM     36  C   UNL     1      -6.037   9.196  15.704  0.00  0.00    +0.000 C 
BRANCH  36  37
ATOM     37  C   UNL     1      -5.550  10.113  16.824  0.00  0.00    +0.000 C 
BRANCH  37  38
ATOM     38  C   UNL     1      -4.918   9.373  17.996  0.00  0.00    +0.000 C 
BRANCH  38  39
ATOM     39  C   UNL     1      -5.076   7.842  17.820  0.00  0.00    +0.000 C 
BRANCH  39  40
ATOM     40  C   UNL     1      -4.089   7.103  18.718  0.00  0.00    +0.000 C 
BRANCH  40  41
ATOM     41  C   UNL     1      -4.635   5.755  19.136  0.00  0.00    +0.000 C 
BRANCH  41  43
ATOM     42  C   UNL     1      -5.374   4.408  21.112  0.00  0.00    +0.000 C 
ATOM     43  C   UNL     1      -4.734   5.713  20.662  0.00  0.00    +0.000 C 
ENDBRANCH  41  43
ENDBRANCH  40  41
ENDBRANCH  39  40
ENDBRANCH  38  39
ENDBRANCH  37  38
ENDBRANCH  36  37
ENDBRANCH  35  36
ENDBRANCH  29  35
ENDBRANCH  28  32
ENDBRANCH  27  28
ENDBRANCH  26  27
ENDBRANCH  25  26
ENDBRANCH  24  25
ENDBRANCH  23  24
ENDBRANCH   1  23
TORSDOF 35
BEGIN_RES LEU A  10
REMARK  2 active torsions:
REMARK  status: ('A' for Active; 'I' for Inactive)
REMARK    1  A    between atoms: CA   and  CB  
REMARK    2  A    between atoms: CB   and  CG  
ROOT
ATOM      1  CA  LEU A  10     -10.775  -4.871   5.898  1.00 25.14     0.177 C 
ENDROOT
BRANCH   1   2
ATOM      2  CB  LEU A  10     -12.191  -4.387   6.226  1.00 17.87     0.038 C 
BRANCH   2   3
ATOM      3  CG  LEU A  10     -12.338  -2.866   6.300  1.00 24.95    -0.020 C 
ATOM      4  CD2 LEU A  10     -13.194  -2.517   7.471  1.00 26.38     0.009 C 
ATOM      5  CD1 LEU A  10     -12.936  -2.315   5.017  1.00 28.12     0.009 C 
ENDBRANCH   2   3
ENDBRANCH   1   2
END_RES LEU A  10
BEGIN_RES CYS A  12
REMARK  2 active torsions:
REMARK  status: ('A' for Active; 'I' for Inactive)
REMARK    3  A    between atoms: CA   and  CB  
REMARK    4  A    between atoms: CB   and  SG  
ROOT
ATOM      6  CA  CYS A  12      -8.555   0.470   8.750  1.00 23.16     0.185 C 
ENDROOT
BRANCH   6   7
ATOM      7  CB  CYS A  12      -9.828   0.763   9.555  1.00 20.43     0.105 C 
BRANCH   7   8
ATOM      8  SG  CYS A  12     -11.279   1.291   8.593  1.00 24.64    -0.180 SA
ATOM      9  H04 CYS A  12     -12.188   0.307   8.579  1.00 24.64     0.101 HD
ENDBRANCH   7   8
ENDBRANCH   6   7
END_RES CYS A  12
BEGIN_RES GLN A  14
REMARK  3 active torsions:
REMARK  status: ('A' for Active; 'I' for Inactive)
REMARK    5  A    between atoms: CA   and  CB  
REMARK    6  A    between atoms: CB   and  CG  
REMARK    7  A    between atoms: CG   and  CD  
REMARK       I    between atoms: CD   and  NE2 
ROOT
ATOM     10  CA  GLN A  14      -4.645   5.402  11.377  1.00 10.43     0.177 C 
ENDROOT
BRANCH  10  11
ATOM     11  CB  GLN A  14      -5.541   5.549  12.608  1.00 14.45     0.044 C 
BRANCH  11  12
ATOM     12  CG  GLN A  14      -5.824   6.982  12.998  1.00 13.74     0.105 C 
BRANCH  12  13
ATOM     13  CD  GLN A  14      -6.528   7.749  11.905  1.00 16.29     0.215 C 
ATOM     14  NE2 GLN A  14      -6.227   9.025  11.797  1.00  8.57    -0.370 N 
ATOM     15  H06 GLN A  14      -6.666   9.588  11.083  1.00  8.57     0.159 HD
ATOM     16  H07 GLN A  14      -5.556   9.441  12.427  1.00  8.57     0.159 HD
ATOM     17  OE1 GLN A  14      -7.330   7.200  11.166  1.00 23.55    -0.274 OA
ENDBRANCH  12  13
ENDBRANCH  11  12
ENDBRANCH  10  11
END_RES GLN A  14
BEGIN_RES SER A  16
REMARK  2 active torsions:
REMARK  status: ('A' for Active; 'I' for Inactive)
REMARK    8  A    between atoms: CA   and  CB  
REMARK    9  A    between atoms: CB   and  OG  
ROOT
ATOM     18  CA  SER A  16      -1.305  10.019  14.282  1.00  2.34     0.200 C 
ENDROOT
BRANCH  18  19
ATOM     19  CB  SER A  16      -2.242   9.935  15.479  1.00  3.12     0.199 C 
BRANCH  19  20
ATOM     20  OG  SER A  16      -2.183   8.645  16.061  1.00  1.00    -0.398 OA
ATOM     21  H04 SER A  16      -1.279   8.452  16.320  1.00  1.00     0.209 HD
ENDBRANCH  19  20
ENDBRANCH  18  19
END_RES SER A  16
BEGIN_RES LEU A  32
REMARK  2 active torsions:
REMARK  status: ('A' for Active; 'I' for Inactive)
REMARK   10  A    between atoms: CA   and  CB  
REMARK   11  A    between atoms: CB   and  CG  
ROOT
ATOM     22  CA  LEU A  32     -10.272  -4.106   1.587  1.00 16.16     0.177 C 
ENDROOT
BRANCH  22  23
ATOM     23  CB  LEU A  32     -11.613  -3.858   0.880  1.00 12.35     0.038 C 
BRANCH  23  24
ATOM     24  CG  LEU A  32     -12.629  -4.982   1.166  1.00  9.77    -0.020 C 
ATOM     25  CD1 LEU A  32     -13.089  -4.923   2.603  1.00  4.35     0.009 C 
ATOM     26  CD2 LEU A  32     -13.819  -4.877   0.247  1.00 10.60     0.009 C 
ENDBRANCH  23  24
ENDBRANCH  22  23
END_RES LEU A  32
BEGIN_RES HIS A  38
REMARK  2 active torsions:
REMARK  status: ('A' for Active; 'I' for Inactive)
REMARK   12  A    between atoms: CA   and  CB  
REMARK   13  A    between atoms: CB   and  CG  
ROOT
ATOM     27  CA  HIS A  38     -10.959   4.941   1.621  1.00 16.94     0.182 C 
ENDROOT
BRANCH  27  28
ATOM     28  CB  HIS A  38     -11.810   4.840   2.881  1.00 15.47     0.095 C 
BRANCH  28  29
ATOM     29  CG  HIS A  38     -12.995   3.940   2.739  1.00 18.62     0.053 A 
ATOM     30  CD2 HIS A  38     -14.112   4.055   1.982  1.00 15.06     0.116 A 
ATOM     31  NE2 HIS A  38     -14.866   2.931   2.205  1.00 18.12    -0.359 N 
ATOM     32  CE1 HIS A  38     -14.237   2.155   3.067  1.00 14.78     0.207 A 
ATOM     33  H06 HIS A  38     -15.759   2.731   1.779  1.00 18.12     0.166 HD
ATOM     34  ND1 HIS A  38     -13.106   2.740   3.406  1.00 16.58    -0.247 NA
ENDBRANCH  28  29
ENDBRANCH  27  28
END_RES HIS A  38
BEGIN_RES TRP A  63
REMARK  2 active torsions:
REMARK  status: ('A' for Active; 'I' for Inactive)
REMARK   14  A    between atoms: CA   and  CB  
REMARK   15  A    between atoms: CB   and  CG  
ROOT
ATOM     35  CA  TRP A  63     -22.437   6.257   6.543  1.00 27.04     0.181 C 
ENDROOT
BRANCH  35  36
ATOM     36  CB  TRP A  63     -22.360   6.642   5.068  1.00 31.37     0.075 C 
BRANCH  36  37
ATOM     37  CG  TRP A  63     -20.953   6.782   4.527  1.00 34.37    -0.028 A 
ATOM     38  CD2 TRP A  63     -19.886   5.828   4.626  1.00 33.79    -0.002 A 
ATOM     39  CE3 TRP A  63     -19.751   4.581   5.240  1.00 32.99     0.014 A 
ATOM     40  CE2 TRP A  63     -18.786   6.357   3.916  1.00 35.84     0.042 A 
ATOM     41  CZ3 TRP A  63     -18.541   3.910   5.131  1.00 32.93     0.001 A 
ATOM     42  CH2 TRP A  63     -17.465   4.464   4.419  1.00 39.24     0.002 A 
ATOM     43  CZ2 TRP A  63     -17.569   5.683   3.805  1.00 37.99     0.030 A 
ATOM     44  NE1 TRP A  63     -19.170   7.571   3.416  1.00 37.98    -0.365 N 
ATOM     45  H06 TRP A  63     -18.591   8.187   2.862  1.00 37.98     0.165 HD
ATOM     46  CD1 TRP A  63     -20.469   7.816   3.789  1.00 38.16     0.096 A 
ENDBRANCH  36  37
ENDBRANCH  35  36
END_RES TRP A  63
BEGIN_RES LEU A  66
REMARK  2 active torsions:
REMARK  status: ('A' for Active; 'I' for Inactive)
REMARK   16  A    between atoms: CA   and  CB  
REMARK   17  A    between atoms: CB   and  CG  
ROOT
ATOM     47  CA  LEU A  66     -20.004   6.489  11.120  1.00 10.90     0.177 C 
ENDROOT
BRANCH  47  48
ATOM     48  CB  LEU A  66     -19.626   5.453  10.069  1.00 13.57     0.038 C 
BRANCH  48  49
ATOM     49  CG  LEU A  66     -19.713   3.982  10.474  1.00  8.73    -0.020 C 
ATOM     50  CD1 LEU A  66     -19.581   3.090   9.267  1.00 14.23     0.009 C 
ATOM     51  CD2 LEU A  66     -18.606   3.691  11.455  1.00  1.92     0.009 C 
ENDBRANCH  48  49
ENDBRANCH  47  48
END_RES LEU A  66
BEGIN_RES PHE A  70
REMARK  2 active torsions:
REMARK  status: ('A' for Active; 'I' for Inactive)
REMARK   18  A    between atoms: CA   and  CB  
REMARK   19  A    between atoms: CB   and  CG  
ROOT
ATOM     52  CA  PHE A  70     -14.974   9.434  13.165  1.00  8.78     0.180 C 
ENDROOT
BRANCH  52  53
ATOM     53  CB  PHE A  70     -14.707   9.132  11.681  1.00  6.33     0.073 C 
BRANCH  53  54
ATOM     54  CG  PHE A  70     -13.996   7.826  11.455  1.00  3.42    -0.056 A 
ATOM     55  CD1 PHE A  70     -13.521   7.076  12.520  1.00 13.88     0.007 A 
ATOM     56  CE1 PHE A  70     -12.816   5.879  12.300  1.00 12.71     0.001 A 
ATOM     57  CZ  PHE A  70     -12.586   5.430  10.999  1.00  4.21     0.000 A 
ATOM     58  CE2 PHE A  70     -13.056   6.168   9.929  1.00  2.83     0.001 A 
ATOM     59  CD2 PHE A  70     -13.760   7.362  10.160  1.00  1.00     0.007 A 
ENDBRANCH  53  54
ENDBRANCH  52  53
END_RES PHE A  70
BEGIN_RES TYR A  73
REMARK  3 active torsions:
REMARK  status: ('A' for Active; 'I' for Inactive)
REMARK   20  A    between atoms: CA   and  CB  
REMARK   21  A    between atoms: CB   and  CG  
REMARK   22  A    between atoms: CZ   and  OH  
ROOT
ATOM     60  CA  TYR A  73     -13.212  10.166  17.260  1.00 12.17     0.180 C 
ENDROOT
BRANCH  60  61
ATOM     61  CB  TYR A  73     -13.301   8.846  16.517  1.00 12.84     0.073 C 
BRANCH  61  62
ATOM     62  CG  TYR A  73     -13.586   7.691  17.412  1.00 15.89    -0.056 A 
ATOM     63  CD1 TYR A  73     -13.855   7.877  18.750  1.00 16.00     0.010 A 
ATOM     64  CE1 TYR A  73     -14.092   6.794  19.596  1.00 13.55     0.037 A 
ATOM     65  CZ  TYR A  73     -14.056   5.513  19.083  1.00 18.13     0.065 A 
ATOM     66  CE2 TYR A  73     -13.791   5.300  17.750  1.00 15.89     0.037 A 
ATOM     67  CD2 TYR A  73     -13.558   6.390  16.921  1.00 21.86     0.010 A 
BRANCH  65  68
ATOM     68  OH  TYR A  73     -14.292   4.433  19.897  1.00 12.12    -0.361 OA
ATOM     69  H08 TYR A  73     -13.521   4.270  20.445  1.00 12.12     0.217 HD
ENDBRANCH  65  68
ENDBRANCH  61  62
ENDBRANCH  60  61
END_RES TYR A  73
BEGIN_RES PHE A  77
REMARK  2 active torsions:
REMARK  status: ('A' for Active; 'I' for Inactive)
REMARK   23  A    between atoms: CA   and  CB  
REMARK   24  A    between atoms: CB   and  CG  
ROOT
ATOM     70  CA  PHE A  77      -8.400  10.581  20.110  1.00 17.17     0.180 C 
ENDROOT
BRANCH  70  71
ATOM     71  CB  PHE A  77      -8.228   9.750  18.851  1.00 10.44     0.073 C 
BRANCH  71  72
ATOM     72  CG  PHE A  77      -8.692   8.334  18.995  1.00  6.07    -0.056 A 
ATOM     73  CD2 PHE A  77      -9.945   7.962  18.565  1.00  9.61     0.007 A 
ATOM     74  CE2 PHE A  77     -10.384   6.649  18.693  1.00  1.00     0.001 A 
ATOM     75  CZ  PHE A  77      -9.554   5.695  19.257  1.00  1.92     0.000 A 
ATOM     76  CE1 PHE A  77      -8.297   6.051  19.690  1.00  9.25     0.001 A 
ATOM     77  CD1 PHE A  77      -7.870   7.372  19.558  1.00  9.63     0.007 A 
ENDBRANCH  71  72
ENDBRANCH  70  71
END_RES PHE A  77
BEGIN_RES LEU A  96
REMARK  2 active torsions:
REMARK  status: ('A' for Active; 'I' for Inactive)
REMARK   25  A    between atoms: CA   and  CB  
REMARK   26  A    between atoms: CB   and  CG  
ROOT
ATOM     78  CA  LEU A  96       0.717   6.481  17.359  1.00 16.08     0.177 C 
ENDROOT
BRANCH  78  79
ATOM     79  CB  LEU A  96      -0.370   7.101  18.230  1.00 18.83     0.038 C 
BRANCH  79  80
ATOM     80  CG  LEU A  96      -0.047   7.129  19.724  1.00 19.03    -0.020 C 
ATOM     81  CD1 LEU A  96       0.621   8.444  20.054  1.00 28.17     0.009 C 
ATOM     82  CD2 LEU A  96      -1.315   7.019  20.539  1.00 22.01     0.009 C 
ENDBRANCH  79  80
ENDBRANCH  78  79
END_RES LEU A  96
BEGIN_RES VAL A  98
REMARK  1 active torsions:
REMARK  status: ('A' for Active; 'I' for Inactive)
REMARK   27  A    between atoms: CA   and  CB  
ROOT
ATOM     83  CA  VAL A  98      -3.928   2.082  14.897  1.00 19.83     0.180 C 
ENDROOT
BRANCH  83  84
ATOM     84  CB  VAL A  98      -5.203   2.807  15.281  1.00 17.87     0.009 C 
ATOM     85  CG2 VAL A  98      -4.894   4.234  15.652  1.00 29.90     0.012 C 
ATOM     86  CG1 VAL A  98      -5.869   2.084  16.433  1.00 14.79     0.012 C 
ENDBRANCH  83  84
END_RES VAL A  98
BEGIN_RES ASN A 112
REMARK  2 active torsions:
REMARK  status: ('A' for Active; 'I' for Inactive)
REMARK   28  A    between atoms: CA   and  CB  
REMARK   29  A    between atoms: CB   and  CG  
REMARK       I    between atoms: CG   and  ND2 
ROOT
ATOM     87  CA  ASN A 112     -11.790  -8.793  14.069  1.00 37.70     0.185 C 
ENDROOT
BRANCH  87  88
ATOM     88  CB  ASN A 112     -12.992  -7.945  14.465  1.00 26.24     0.137 C 
BRANCH  88  89
ATOM     89  CG  ASN A 112     -13.944  -8.664  15.393  1.00 21.77     0.217 C 
ATOM     90  ND2 ASN A 112     -13.648  -8.617  16.692  1.00  9.31    -0.370 N 
ATOM     91  H04 ASN A 112     -14.245  -9.079  17.363  1.00  9.31     0.159 HD
ATOM     92  H05 ASN A 112     -12.827  -8.118  17.005  1.00  9.31     0.159 HD
ATOM     93  OD1 ASN A 112     -14.934  -9.262  14.953  1.00 21.61    -0.274 OA
ENDBRANCH  88  89
ENDBRANCH  87  88
END_RES ASN A 112
BEGIN_RES PHE A 114
REMARK  2 active torsions:
REMARK  status: ('A' for Active; 'I' for Inactive)
REMARK   30  A    between atoms: CA   and  CB  
REMARK   31  A    between atoms: CB   and  CG  
ROOT
ATOM     94  CA  PHE A 114      -7.754  -3.619  17.012  1.00 26.06     0.180 C 
ENDROOT
BRANCH  94  95
ATOM     95  CB  PHE A 114      -8.890  -3.080  17.867  1.00 19.95     0.073 C 
BRANCH  95  96
ATOM     96  CG  PHE A 114      -8.746  -1.630  18.197  1.00 17.65    -0.056 A 
ATOM     97  CD1 PHE A 114      -8.637  -0.677  17.188  1.00 13.01     0.007 A 
ATOM     98  CE1 PHE A 114      -8.474   0.668  17.494  1.00  6.74     0.001 A 
ATOM     99  CZ  PHE A 114      -8.421   1.080  18.822  1.00  6.27     0.000 A 
ATOM    100  CE2 PHE A 114      -8.530   0.141  19.835  1.00 17.36     0.001 A 
ATOM    101  CD2 PHE A 114      -8.693  -1.213  19.520  1.00 18.39     0.007 A 
ENDBRANCH  95  96
ENDBRANCH  94  95
END_RES PHE A 114
BEGIN_RES VAL A 116
REMARK  1 active torsions:
REMARK  status: ('A' for Active; 'I' for Inactive)
REMARK   32  A    between atoms: CA   and  CB  
ROOT
ATOM    102  CA  VAL A 116      -2.467   0.283  18.565  1.00 13.48     0.180 C 
ENDROOT
BRANCH 102 103
ATOM    103  CB  VAL A 116      -3.101   1.238  19.599  1.00 20.86     0.009 C 
ATOM    104  CG1 VAL A 116      -2.816   2.688  19.199  1.00 25.01     0.012 C 
ATOM    105  CG2 VAL A 116      -4.583   0.979  19.733  1.00 25.34     0.012 C 
ENDBRANCH 102 103
END_RES VAL A 116
BEGIN_RES ILE A 123
REMARK  2 active torsions:
REMARK  status: ('A' for Active; 'I' for Inactive)
REMARK   33  A    between atoms: CA   and  CB  
REMARK   34  A    between atoms: CB   and  CG1 
ROOT
ATOM    106  CA  ILE A 123       1.557  -1.626  23.222  1.00 15.07     0.180 C 
ENDROOT
BRANCH 106 107
ATOM    107  CB  ILE A 123       1.697  -0.112  23.461  1.00 14.41     0.013 C 
ATOM    108  CG2 ILE A 123       3.111   0.212  23.909  1.00 18.35     0.012 C 
BRANCH 107 109
ATOM    109  CG1 ILE A 123       1.356   0.659  22.188  1.00 15.23     0.002 C 
ATOM    110  CD1 ILE A 123       0.229   1.648  22.363  1.00 14.67     0.005 C 
ENDBRANCH 107 109
ENDBRANCH 106 107
END_RES ILE A 123
BEGIN_RES LEU A 124
REMARK  2 active torsions:
REMARK  status: ('A' for Active; 'I' for Inactive)
REMARK   35  A    between atoms: CA   and  CB  
REMARK   36  A    between atoms: CB   and  CG  
ROOT
ATOM    111  CA  LEU A 124      -2.057  -2.686  23.524  1.00 11.86     0.177 C 
ENDROOT
BRANCH 111 112
ATOM    112  CB  LEU A 124      -2.698  -1.652  24.429  1.00 14.60     0.038 C 
BRANCH 112 113
ATOM    113  CG  LEU A 124      -2.603  -0.248  23.850  1.00 16.19    -0.020 C 
ATOM    114  CD1 LEU A 124      -4.001   0.195  23.377  1.00 22.07     0.009 C 
ATOM    115  CD2 LEU A 124      -2.038   0.687  24.890  1.00  9.12     0.009 C 
ENDBRANCH 112 113
ENDBRANCH 111 112
END_RES LEU A 124
BEGIN_RES PHE A 126
REMARK  2 active torsions:
REMARK  status: ('A' for Active; 'I' for Inactive)
REMARK   37  A    between atoms: CA   and  CB  
REMARK   38  A    between atoms: CB   and  CG  
ROOT
ATOM    116  CA  PHE A 126      -8.784  -4.792  22.233  1.00 23.15     0.180 C 
ENDROOT
BRANCH 116 117
ATOM    117  CB  PHE A 126      -9.823  -4.011  21.461  1.00 20.65     0.073 C 
BRANCH 117 118
ATOM    118  CG  PHE A 126     -10.946  -3.537  22.298  1.00 23.65    -0.056 A 
ATOM    119  CD2 PHE A 126     -10.756  -2.532  23.230  1.00 36.63     0.007 A 
ATOM    120  CE2 PHE A 126     -11.822  -2.082  24.022  1.00 36.27     0.001 A 
ATOM    121  CZ  PHE A 126     -13.080  -2.647  23.874  1.00 18.06     0.000 A 
ATOM    122  CE1 PHE A 126     -13.273  -3.649  22.944  1.00  5.50     0.001 A 
ATOM    123  CD1 PHE A 126     -12.208  -4.088  22.158  1.00 15.29     0.007 A 
ENDBRANCH 117 118
ENDBRANCH 116 117
END_RES PHE A 126
BEGIN_RES TRP A 131
REMARK  2 active torsions:
REMARK  status: ('A' for Active; 'I' for Inactive)
REMARK   39  A    between atoms: CA   and  CB  
REMARK   40  A    between atoms: CB   and  CG  
ROOT
ATOM    124  CA  TRP A 131      -8.096  -3.335  26.542  1.00 14.52     0.181 C 
ENDROOT
BRANCH 124 125
ATOM    125  CB  TRP A 131      -7.651  -1.877  26.607  1.00 13.06     0.075 C 
BRANCH 125 126
ATOM    126  CG  TRP A 131      -8.041  -1.054  25.399  1.00 16.97    -0.028 A 
ATOM    127  CD2 TRP A 131      -9.123  -0.123  25.316  1.00 11.34    -0.002 A 
ATOM    128  CE2 TRP A 131      -9.116   0.418  24.015  1.00  5.87     0.042 A 
ATOM    129  CE3 TRP A 131     -10.101   0.305  26.221  1.00  3.80     0.014 A 
ATOM    130  CZ2 TRP A 131     -10.048   1.369  23.597  1.00  1.35     0.030 A 
ATOM    131  NE1 TRP A 131      -8.078  -0.158  23.335  1.00 13.90    -0.365 N 
ATOM    132  CH2 TRP A 131     -10.995   1.772  24.506  1.00  1.00     0.002 A 
ATOM    133  CZ3 TRP A 131     -11.028   1.246  25.811  1.00  1.00     0.001 A 
ATOM    134  CD1 TRP A 131      -7.436  -1.041  24.172  1.00 17.22     0.096 A 
ATOM    135  H07 TRP A 131      -7.825   0.034  22.377  1.00 13.90     0.165 HD
ENDBRANCH 125 126
ENDBRANCH 124 125
END_RES TRP A 131
BEGIN_RES LEU A 148
REMARK  2 active torsions:
REMARK  status: ('A' for Active; 'I' for Inactive)
REMARK   41  A    between atoms: CA   and  CB  
REMARK   42  A    between atoms: CB   and  CG  
ROOT
ATOM    136  CA  LEU A 148      -9.018   3.259  29.295  1.00 16.99     0.177 C 
ENDROOT
BRANCH 136 137
ATOM    137  CB  LEU A 148      -8.166   2.574  28.236  1.00  6.39     0.038 C 
BRANCH 137 138
ATOM    138  CG  LEU A 148      -7.545   3.363  27.101  1.00  1.00    -0.020 C 
ATOM    139  CD2 LEU A 148      -8.614   4.024  26.281  1.00  1.00     0.009 C 
ATOM    140  CD1 LEU A 148      -6.731   2.407  26.248  1.00  2.71     0.009 C 
ENDBRANCH 137 138
ENDBRANCH 136 137
END_RES LEU A 148
BEGIN_RES THR A 154
REMARK  2 active torsions:
REMARK  status: ('A' for Active; 'I' for Inactive)
REMARK   43  A    between atoms: CA   and  CB  
REMARK   44  A    between atoms: CB   and  OG1 
ROOT
ATOM    141  CA  THR A 154     -15.990   3.959  24.426  1.00 20.45     0.205 C 
ENDROOT
BRANCH 141 142
ATOM    142  CB  THR A 154     -14.777   4.829  24.694  1.00 16.79     0.146 C 
ATOM    143  CG2 THR A 154     -13.647   4.457  23.753  1.00 20.24     0.042 C 
BRANCH 142 144
ATOM    144  OG1 THR A 154     -15.131   6.200  24.473  1.00 18.84    -0.393 OA
ATOM    145  H06 THR A 154     -15.390   6.320  23.556  1.00 18.84     0.210 HD
ENDBRANCH 142 144
ENDBRANCH 141 142
END_RES THR A 154
BEGIN_RES VAL A 158
REMARK  1 active torsions:
REMARK  status: ('A' for Active; 'I' for Inactive)
REMARK   45  A    between atoms: CA   and  CB  
ROOT
ATOM    146  CA  VAL A 158     -15.487  -0.189  19.892  1.00 15.49     0.180 C 
ENDROOT
BRANCH 146 147
ATOM    147  CB  VAL A 158     -14.291  -0.273  20.822  1.00  6.52     0.009 C 
ATOM    148  CG1 VAL A 158     -13.249  -1.222  20.276  1.00  1.00     0.012 C 
ATOM    149  CG2 VAL A 158     -13.719   1.100  20.993  1.00  5.99     0.012 C 
ENDBRANCH 146 147
END_RES VAL A 158
BEGIN_RES LEU A 161
REMARK  2 active torsions:
REMARK  status: ('A' for Active; 'I' for Inactive)
REMARK   46  A    between atoms: CA   and  CB  
REMARK   47  A    between atoms: CB   and  CG  
ROOT
ATOM    150  CA  LEU A 161     -18.031  -1.858  15.935  1.00 13.31     0.177 C 
ENDROOT
BRANCH 150 151
ATOM    151  CB  LEU A 161     -17.046  -0.706  16.001  1.00 14.13     0.038 C 
BRANCH 151 152
ATOM    152  CG  LEU A 161     -17.379   0.516  15.155  1.00 19.39    -0.020 C 
ATOM    153  CD2 LEU A 161     -16.433   1.648  15.476  1.00 27.75     0.009 C 
ATOM    154  CD1 LEU A 161     -18.797   0.933  15.438  1.00 18.59     0.009 C 
ENDBRANCH 151 152
ENDBRANCH 150 151
END_RES LEU A 161
BEGIN_RES GLN A 168
REMARK  3 active torsions:
REMARK  status: ('A' for Active; 'I' for Inactive)
REMARK   48  A    between atoms: CA   and  CB  
REMARK   49  A    between atoms: CB   and  CG  
REMARK   50  A    between atoms: CG   and  CD  
REMARK       I    between atoms: CD   and  NE2 
ROOT
ATOM    155  CA  GLN A 168     -22.035  -6.020   8.155  1.00 30.94     0.177 C 
ENDROOT
BRANCH 155 156
ATOM    156  CB  GLN A 168     -23.054  -5.218   8.946  1.00 41.76     0.044 C 
BRANCH 156 157
ATOM    157  CG  GLN A 168     -24.460  -5.749   8.872  1.00 61.20     0.105 C 
BRANCH 157 158
ATOM    158  CD  GLN A 168     -25.073  -5.537   7.501  1.00 75.49     0.215 C 
ATOM    159  NE2 GLN A 168     -25.154  -4.273   7.080  1.00 85.00    -0.370 N 
ATOM    160  H06 GLN A 168     -25.555  -4.067   6.176  1.00 85.00     0.159 HD
ATOM    161  H07 GLN A 168     -24.815  -3.523   7.666  1.00 85.00     0.159 HD
ATOM    162  OE1 GLN A 168     -25.476  -6.495   6.826  1.00 73.64    -0.274 OA
ENDBRANCH 157 158
ENDBRANCH 156 157
ENDBRANCH 155 156
END_RES GLN A 168
ENDMDL
MODEL 5
REMARK VINA RESULT:      -7.9      1.431      3.433
REMARK  Name = human_CD1d_NP40_pred.rank_0
REMARK  35 active torsions:
REMARK  status: ('A' for Active; 'I' for Inactive)
REMARK    1  A    between atoms: O_2  and  C_23
REMARK    2  A    between atoms: O_2  and  C_24
REMARK    3  A    between atoms: C_3  and  C_5
REMARK    4  A    between atoms: O_4  and  C_25
REMARK    5  A    between atoms: O_4  and  C_26
REMARK    6  A    between atoms: C_5  and  C_7
REMARK    7  A    between atoms: O_6  and  C_27
REMARK    8  A    between atoms: O_6  and  C_28
REMARK    9  A    between atoms: C_7  and  C_9
REMARK   10  A    between atoms: O_8  and  C_29
REMARK   11  A    between atoms: O_8  and  C_30
REMARK   12  A    between atoms: C_9  and  C_11
REMARK   13  A    between atoms: O_10  and  C_31
REMARK   14  A    between atoms: O_10  and  C_32
REMARK   15  A    between atoms: C_11  and  C_13
REMARK   16  A    between atoms: O_12  and  C_33
REMARK   17  A    between atoms: O_12  and  C_34
REMARK   18  A    between atoms: C_13  and  C_15
REMARK   19  A    between atoms: O_14  and  C_35
REMARK   20  A    between atoms: O_14  and  C_36
REMARK   21  A    between atoms: C_15  and  C_17
REMARK   22  A    between atoms: O_16  and  C_37
REMARK   23  A    between atoms: O_16  and  C_38
REMARK   24  A    between atoms: C_17  and  C_19
REMARK   25  A    between atoms: O_18  and  C_39
REMARK   26  A    between atoms: O_18  and  C_40
REMARK   27  A    between atoms: C_24  and  C_25
REMARK   28  A    between atoms: C_26  and  C_27
REMARK   29  A    between atoms: C_28  and  C_29
REMARK   30  A    between atoms: C_30  and  C_31
REMARK   31  A    between atoms: C_32  and  C_33
REMARK   32  A    between atoms: C_34  and  C_35
REMARK   33  A    between atoms: C_36  and  C_37
REMARK   34  A    between atoms: C_38  and  C_39
REMARK   35  A    between atoms: C_40  and  C_41
REMARK                            x       y       z     vdW  Elec       q    Type
REMARK                         _______ _______ _______ _____ _____    ______ ____
ROOT
ATOM      1  O   UNL     1     -16.632   3.212   8.140  0.00  0.00    +0.000 OA
ENDROOT
BRANCH   1   2
ATOM      2  C   UNL     1     -17.724   2.328   7.813  0.00  0.00    +0.000 C 
BRANCH   2   3
ATOM      3  C   UNL     1     -17.831   1.214   8.868  0.00  0.00    +0.000 C 
BRANCH   3   4
ATOM      4  O   UNL     1     -16.899   1.474   9.949  0.00  0.00    +0.000 OA
BRANCH   4   5
ATOM      5  C   UNL     1     -17.266   0.741  11.136  0.00  0.00    +0.000 C 
BRANCH   5   6
ATOM      6  C   UNL     1     -16.533  -0.571  11.161  0.00  0.00    +0.000 C 
BRANCH   6   7
ATOM      7  O   UNL     1     -16.234  -0.915  12.556  0.00  0.00    +0.000 OA
BRANCH   7   8
ATOM      8  C   UNL     1     -14.881  -0.700  12.948  0.00  0.00    +0.000 C 
BRANCH   8   9
ATOM      9  C   UNL     1     -14.166  -2.040  13.173  0.00  0.00    +0.000 C 
BRANCH   9  10
ATOM     10  O   UNL     1     -12.748  -1.895  12.824  0.00  0.00    +0.000 OA
BRANCH  10  11
ATOM     11  C   UNL     1     -12.554  -0.962  11.707  0.00  0.00    +0.000 C 
BRANCH  11  12
ATOM     12  C   UNL     1     -12.561  -1.734  10.375  0.00  0.00    +0.000 C 
BRANCH  12  13
ATOM     13  O   UNL     1     -13.604  -1.191   9.495  0.00  0.00    +0.000 OA
BRANCH  13  14
ATOM     14  C   UNL     1     -13.550   0.257   9.412  0.00  0.00    +0.000 C 
BRANCH  14  15
ATOM     15  C   UNL     1     -14.133   0.728   8.036  0.00  0.00    +0.000 C 
BRANCH  15  16
ATOM     16  O   UNL     1     -13.286   1.782   7.491  0.00  0.00    +0.000 OA
BRANCH  16  17
ATOM     17  C   UNL     1     -13.916   2.484   6.410  0.00  0.00    +0.000 C 
BRANCH  17  18
ATOM     18  C   UNL     1     -13.638   3.986   6.514  0.00  0.00    +0.000 C 
BRANCH  18  19
ATOM     19  O   UNL     1     -12.252   4.283   6.171  0.00  0.00    +0.000 OA
BRANCH  19  20
ATOM     20  C   UNL     1     -11.709   5.270   7.044  0.00  0.00    +0.000 C 
BRANCH  20  22
ATOM     21  O   UNL     1      -9.514   5.871   7.814  0.00  0.00    +0.000 OA
ATOM     22  C   UNL     1     -10.288   5.641   6.641  0.00  0.00    +0.000 C 
ENDBRANCH  20  22
ENDBRANCH  19  20
ENDBRANCH  18  19
ENDBRANCH  17  18
ENDBRANCH  16  17
ENDBRANCH  15  16
ENDBRANCH  14  15
ENDBRANCH  13  14
ENDBRANCH  12  13
ENDBRANCH  11  12
ENDBRANCH  10  11
ENDBRANCH   9  10
ENDBRANCH   8   9
ENDBRANCH   7   8
ENDBRANCH   6   7
ENDBRANCH   5   6
ENDBRANCH   4   5
ENDBRANCH   3   4
ENDBRANCH   2   3
ENDBRANCH   1   2
BRANCH   1  23
ATOM     23  C   UNL     1     -16.982   4.607   7.931  0.00  0.00    +0.000 C 
BRANCH  23  24
ATOM     24  C   UNL     1     -16.377   5.449   9.038  0.00  0.00    +0.000 C 
BRANCH  24  25
ATOM     25  O   UNL     1     -15.923   4.569  10.097  0.00  0.00    +0.000 OA
BRANCH  25  26
ATOM     26  C   UNL     1     -16.211   5.049  11.435  0.00  0.00    +0.000 C 
BRANCH  26  27
ATOM     27  C   UNL     1     -15.916   3.933  12.458  0.00  0.00    +0.000 C 
BRANCH  27  28
ATOM     28  O   UNL     1     -14.818   3.129  11.998  0.00  0.00    +0.000 OA
BRANCH  28  32
ATOM     29  C   UNL     1     -12.148   2.357  15.112  0.00  0.00    +0.000 A 
ATOM     30  C   UNL     1     -13.365   2.939  15.350  0.00  0.00    +0.000 A 
ATOM     31  C   UNL     1     -14.230   3.193  14.309  0.00  0.00    +0.000 A 
ATOM     32  C   UNL     1     -13.890   2.841  13.006  0.00  0.00    +0.000 A 
ATOM     33  C   UNL     1     -12.674   2.305  12.795  0.00  0.00    +0.000 A 
ATOM     34  C   UNL     1     -11.801   2.054  13.834  0.00  0.00    +0.000 A 
BRANCH  29  35
ATOM     35  C   UNL     1     -11.221   2.086  16.262  0.00  0.00    +0.000 C 
BRANCH  35  36
ATOM     36  C   UNL     1     -11.317   3.202  17.294  0.00  0.00    +0.000 C 
BRANCH  36  37
ATOM     37  C   UNL     1     -10.393   4.358  16.916  0.00  0.00    +0.000 C 
BRANCH  37  38
ATOM     38  C   UNL     1      -9.003   3.918  16.475  0.00  0.00    +0.000 C 
BRANCH  38  39
ATOM     39  C   UNL     1      -8.641   4.554  15.110  0.00  0.00    +0.000 C 
BRANCH  39  40
ATOM     40  C   UNL     1      -9.879   5.173  14.471  0.00  0.00    +0.000 C 
BRANCH  40  41
ATOM     41  C   UNL     1      -9.602   6.585  13.999  0.00  0.00    +0.000 C 
BRANCH  41  43
ATOM     42  C   UNL     1      -9.917   7.918  16.093  0.00  0.00    +0.000 C 
ATOM     43  C   UNL     1      -8.896   7.351  15.119  0.00  0.00    +0.000 C 
ENDBRANCH  41  43
ENDBRANCH  40  41
ENDBRANCH  39  40
ENDBRANCH  38  39
ENDBRANCH  37  38
ENDBRANCH  36  37
ENDBRANCH  35  36
ENDBRANCH  29  35
ENDBRANCH  28  32
ENDBRANCH  27  28
ENDBRANCH  26  27
ENDBRANCH  25  26
ENDBRANCH  24  25
ENDBRANCH  23  24
ENDBRANCH   1  23
TORSDOF 35
BEGIN_RES LEU A  10
REMARK  2 active torsions:
REMARK  status: ('A' for Active; 'I' for Inactive)
REMARK    1  A    between atoms: CA   and  CB  
REMARK    2  A    between atoms: CB   and  CG  
ROOT
ATOM      1  CA  LEU A  10     -10.775  -4.871   5.898  1.00 25.14     0.177 C 
ENDROOT
BRANCH   1   2
ATOM      2  CB  LEU A  10     -12.191  -4.387   6.226  1.00 17.87     0.038 C 
BRANCH   2   3
ATOM      3  CG  LEU A  10     -12.408  -2.885   6.029  1.00 24.95    -0.020 C 
ATOM      4  CD2 LEU A  10     -13.815  -2.546   6.387  1.00 26.38     0.009 C 
ATOM      5  CD1 LEU A  10     -12.106  -2.476   4.598  1.00 28.12     0.009 C 
ENDBRANCH   2   3
ENDBRANCH   1   2
END_RES LEU A  10
BEGIN_RES CYS A  12
REMARK  2 active torsions:
REMARK  status: ('A' for Active; 'I' for Inactive)
REMARK    3  A    between atoms: CA   and  CB  
REMARK    4  A    between atoms: CB   and  SG  
ROOT
ATOM      6  CA  CYS A  12      -8.555   0.470   8.750  1.00 23.16     0.185 C 
ENDROOT
BRANCH   6   7
ATOM      7  CB  CYS A  12      -9.828   0.763   9.555  1.00 20.43     0.105 C 
BRANCH   7   8
ATOM      8  SG  CYS A  12     -10.470   2.462   9.446  1.00 24.64    -0.180 SA
ATOM      9  H04 CYS A  12      -9.831   3.239  10.329  1.00 24.64     0.101 HD
ENDBRANCH   7   8
ENDBRANCH   6   7
END_RES CYS A  12
BEGIN_RES GLN A  14
REMARK  3 active torsions:
REMARK  status: ('A' for Active; 'I' for Inactive)
REMARK    5  A    between atoms: CA   and  CB  
REMARK    6  A    between atoms: CB   and  CG  
REMARK    7  A    between atoms: CG   and  CD  
REMARK       I    between atoms: CD   and  NE2 
ROOT
ATOM     10  CA  GLN A  14      -4.645   5.402  11.377  1.00 10.43     0.177 C 
ENDROOT
BRANCH  10  11
ATOM     11  CB  GLN A  14      -5.541   5.549  12.608  1.00 14.45     0.044 C 
BRANCH  11  12
ATOM     12  CG  GLN A  14      -6.534   6.685  12.516  1.00 13.74     0.105 C 
BRANCH  12  13
ATOM     13  CD  GLN A  14      -5.872   8.039  12.607  1.00 16.29     0.215 C 
ATOM     14  NE2 GLN A  14      -6.403   9.000  11.883  1.00  8.57    -0.370 N 
ATOM     15  H06 GLN A  14      -6.003   9.928  11.905  1.00  8.57     0.159 HD
ATOM     16  H07 GLN A  14      -7.210   8.811  11.306  1.00  8.57     0.159 HD
ATOM     17  OE1 GLN A  14      -4.899   8.217  13.322  1.00 23.55    -0.274 OA
ENDBRANCH  12  13
ENDBRANCH  11  12
ENDBRANCH  10  11
END_RES GLN A  14
BEGIN_RES SER A  16
REMARK  2 active torsions:
REMARK  status: ('A' for Active; 'I' for Inactive)
REMARK    8  A    between atoms: CA   and  CB  
REMARK    9  A    between atoms: CB   and  OG  
ROOT
ATOM     18  CA  SER A  16      -1.305  10.019  14.282  1.00  2.34     0.200 C 
ENDROOT
BRANCH  18  19
ATOM     19  CB  SER A  16      -2.242   9.935  15.479  1.00  3.12     0.199 C 
BRANCH  19  20
ATOM     20  OG  SER A  16      -1.982   8.760  16.226  1.00  1.00    -0.398 OA
ATOM     21  H04 SER A  16      -1.759   8.043  15.628  1.00  1.00     0.209 HD
ENDBRANCH  19  20
ENDBRANCH  18  19
END_RES SER A  16
BEGIN_RES LEU A  32
REMARK  2 active torsions:
REMARK  status: ('A' for Active; 'I' for Inactive)
REMARK   10  A    between atoms: CA   and  CB  
REMARK   11  A    between atoms: CB   and  CG  
ROOT
ATOM     22  CA  LEU A  32     -10.272  -4.106   1.587  1.00 16.16     0.177 C 
ENDROOT
BRANCH  22  23
ATOM     23  CB  LEU A  32     -11.613  -3.858   0.880  1.00 12.35     0.038 C 
BRANCH  23  24
ATOM     24  CG  LEU A  32     -12.572  -5.057   1.030  1.00  9.77    -0.020 C 
ATOM     25  CD1 LEU A  32     -13.082  -5.147   2.448  1.00  4.35     0.009 C 
ATOM     26  CD2 LEU A  32     -13.733  -4.938   0.078  1.00 10.60     0.009 C 
ENDBRANCH  23  24
ENDBRANCH  22  23
END_RES LEU A  32
BEGIN_RES HIS A  38
REMARK  2 active torsions:
REMARK  status: ('A' for Active; 'I' for Inactive)
REMARK   12  A    between atoms: CA   and  CB  
REMARK   13  A    between atoms: CB   and  CG  
ROOT
ATOM     27  CA  HIS A  38     -10.959   4.941   1.621  1.00 16.94     0.182 C 
ENDROOT
BRANCH  27  28
ATOM     28  CB  HIS A  38     -11.810   4.840   2.881  1.00 15.47     0.095 C 
BRANCH  28  29
ATOM     29  CG  HIS A  38     -13.018   3.974   2.726  1.00 18.62     0.053 A 
ATOM     30  CD2 HIS A  38     -14.212   4.212   2.131  1.00 15.06     0.116 A 
ATOM     31  NE2 HIS A  38     -14.954   3.065   2.248  1.00 18.12    -0.359 N 
ATOM     32  CE1 HIS A  38     -14.245   2.156   2.889  1.00 14.78     0.207 A 
ATOM     33  H06 HIS A  38     -15.893   2.937   1.898  1.00 18.12     0.166 HD
ATOM     34  ND1 HIS A  38     -13.073   2.678   3.191  1.00 16.58    -0.247 NA
ENDBRANCH  28  29
ENDBRANCH  27  28
END_RES HIS A  38
BEGIN_RES TRP A  63
REMARK  2 active torsions:
REMARK  status: ('A' for Active; 'I' for Inactive)
REMARK   14  A    between atoms: CA   and  CB  
REMARK   15  A    between atoms: CB   and  CG  
ROOT
ATOM     35  CA  TRP A  63     -22.437   6.257   6.543  1.00 27.04     0.181 C 
ENDROOT
BRANCH  35  36
ATOM     36  CB  TRP A  63     -22.360   6.642   5.068  1.00 31.37     0.075 C 
BRANCH  36  37
ATOM     37  CG  TRP A  63     -20.954   6.848   4.544  1.00 34.37    -0.028 A 
ATOM     38  CD2 TRP A  63     -19.893   5.884   4.504  1.00 33.79    -0.002 A 
ATOM     39  CE3 TRP A  63     -19.763   4.563   4.937  1.00 32.99     0.014 A 
ATOM     40  CE2 TRP A  63     -18.793   6.501   3.869  1.00 35.84     0.042 A 
ATOM     41  CZ3 TRP A  63     -18.558   3.908   4.729  1.00 32.93     0.001 A 
ATOM     42  CH2 TRP A  63     -17.481   4.549   4.096  1.00 39.24     0.002 A 
ATOM     43  CZ2 TRP A  63     -17.580   5.843   3.658  1.00 37.99     0.030 A 
ATOM     44  NE1 TRP A  63     -19.172   7.775   3.544  1.00 37.98    -0.365 N 
ATOM     45  H06 TRP A  63     -18.592   8.459   3.078  1.00 37.98     0.165 HD
ATOM     46  CD1 TRP A  63     -20.467   7.973   3.955  1.00 38.16     0.096 A 
ENDBRANCH  36  37
ENDBRANCH  35  36
END_RES TRP A  63
BEGIN_RES LEU A  66
REMARK  2 active torsions:
REMARK  status: ('A' for Active; 'I' for Inactive)
REMARK   16  A    between atoms: CA   and  CB  
REMARK   17  A    between atoms: CB   and  CG  
ROOT
ATOM     47  CA  LEU A  66     -20.004   6.489  11.120  1.00 10.90     0.177 C 
ENDROOT
BRANCH  47  48
ATOM     48  CB  LEU A  66     -19.626   5.453  10.069  1.00 13.57     0.038 C 
BRANCH  48  49
ATOM     49  CG  LEU A  66     -19.602   3.989  10.507  1.00  8.73    -0.020 C 
ATOM     50  CD1 LEU A  66     -19.662   3.883  12.008  1.00 14.23     0.009 C 
ATOM     51  CD2 LEU A  66     -20.785   3.287   9.891  1.00  1.92     0.009 C 
ENDBRANCH  48  49
ENDBRANCH  47  48
END_RES LEU A  66
BEGIN_RES PHE A  70
REMARK  2 active torsions:
REMARK  status: ('A' for Active; 'I' for Inactive)
REMARK   18  A    between atoms: CA   and  CB  
REMARK   19  A    between atoms: CB   and  CG  
ROOT
ATOM     52  CA  PHE A  70     -14.974   9.434  13.165  1.00  8.78     0.180 C 
ENDROOT
BRANCH  52  53
ATOM     53  CB  PHE A  70     -14.707   9.132  11.681  1.00  6.33     0.073 C 
BRANCH  53  54
ATOM     54  CG  PHE A  70     -13.880   7.894  11.462  1.00  3.42    -0.056 A 
ATOM     55  CD1 PHE A  70     -13.619   7.426  10.183  1.00 13.88     0.007 A 
ATOM     56  CE1 PHE A  70     -12.886   6.242   9.987  1.00 12.71     0.001 A 
ATOM     57  CZ  PHE A  70     -12.409   5.522  11.082  1.00  4.21     0.000 A 
ATOM     58  CE2 PHE A  70     -12.662   5.980  12.362  1.00  2.83     0.001 A 
ATOM     59  CD2 PHE A  70     -13.395   7.164  12.548  1.00  1.00     0.007 A 
ENDBRANCH  53  54
ENDBRANCH  52  53
END_RES PHE A  70
BEGIN_RES TYR A  73
REMARK  3 active torsions:
REMARK  status: ('A' for Active; 'I' for Inactive)
REMARK   20  A    between atoms: CA   and  CB  
REMARK   21  A    between atoms: CB   and  CG  
REMARK   22  A    between atoms: CZ   and  OH  
ROOT
ATOM     60  CA  TYR A  73     -13.212  10.166  17.260  1.00 12.17     0.180 C 
ENDROOT
BRANCH  60  61
ATOM     61  CB  TYR A  73     -13.301   8.846  16.517  1.00 12.84     0.073 C 
BRANCH  61  62
ATOM     62  CG  TYR A  73     -13.363   7.668  17.425  1.00 15.89    -0.056 A 
ATOM     63  CD1 TYR A  73     -14.066   6.536  17.075  1.00 16.00     0.010 A 
ATOM     64  CE1 TYR A  73     -14.151   5.444  17.938  1.00 13.55     0.037 A 
ATOM     65  CZ  TYR A  73     -13.520   5.499  19.164  1.00 18.13     0.065 A 
ATOM     66  CE2 TYR A  73     -12.811   6.617  19.538  1.00 15.89     0.037 A 
ATOM     67  CD2 TYR A  73     -12.736   7.696  18.666  1.00 21.86     0.010 A 
BRANCH  65  68
ATOM     68  OH  TYR A  73     -13.586   4.433  20.027  1.00 12.12    -0.361 OA
ATOM     69  H08 TYR A  73     -12.735   4.315  20.456  1.00 12.12     0.217 HD
ENDBRANCH  65  68
ENDBRANCH  61  62
ENDBRANCH  60  61
END_RES TYR A  73
BEGIN_RES PHE A  77
REMARK  2 active torsions:
REMARK  status: ('A' for Active; 'I' for Inactive)
REMARK   23  A    between atoms: CA   and  CB  
REMARK   24  A    between atoms: CB   and  CG  
ROOT
ATOM     70  CA  PHE A  77      -8.400  10.581  20.110  1.00 17.17     0.180 C 
ENDROOT
BRANCH  70  71
ATOM     71  CB  PHE A  77      -8.228   9.750  18.851  1.00 10.44     0.073 C 
BRANCH  71  72
ATOM     72  CG  PHE A  77      -8.174   8.276  19.104  1.00  6.07    -0.056 A 
ATOM     73  CD2 PHE A  77      -7.151   7.515  18.587  1.00  9.61     0.007 A 
ATOM     74  CE2 PHE A  77      -7.091   6.145  18.819  1.00  1.00     0.001 A 
ATOM     75  CZ  PHE A  77      -8.069   5.530  19.581  1.00  1.92     0.000 A 
ATOM     76  CE1 PHE A  77      -9.099   6.278  20.107  1.00  9.25     0.001 A 
ATOM     77  CD1 PHE A  77      -9.147   7.651  19.866  1.00  9.63     0.007 A 
ENDBRANCH  71  72
ENDBRANCH  70  71
END_RES PHE A  77
BEGIN_RES LEU A  96
REMARK  2 active torsions:
REMARK  status: ('A' for Active; 'I' for Inactive)
REMARK   25  A    between atoms: CA   and  CB  
REMARK   26  A    between atoms: CB   and  CG  
ROOT
ATOM     78  CA  LEU A  96       0.717   6.481  17.359  1.00 16.08     0.177 C 
ENDROOT
BRANCH  78  79
ATOM     79  CB  LEU A  96      -0.370   7.101  18.230  1.00 18.83     0.038 C 
BRANCH  79  80
ATOM     80  CG  LEU A  96      -0.116   6.995  19.734  1.00 19.03    -0.020 C 
ATOM     81  CD1 LEU A  96       0.611   8.236  20.195  1.00 28.17     0.009 C 
ATOM     82  CD2 LEU A  96      -1.425   6.900  20.484  1.00 22.01     0.009 C 
ENDBRANCH  79  80
ENDBRANCH  78  79
END_RES LEU A  96
BEGIN_RES VAL A  98
REMARK  1 active torsions:
REMARK  status: ('A' for Active; 'I' for Inactive)
REMARK   27  A    between atoms: CA   and  CB  
ROOT
ATOM     83  CA  VAL A  98      -3.928   2.082  14.897  1.00 19.83     0.180 C 
ENDROOT
BRANCH  83  84
ATOM     84  CB  VAL A  98      -5.203   2.807  15.281  1.00 17.87     0.009 C 
ATOM     85  CG2 VAL A  98      -4.939   4.285  15.409  1.00 29.90     0.012 C 
ATOM     86  CG1 VAL A  98      -5.735   2.242  16.581  1.00 14.79     0.012 C 
ENDBRANCH  83  84
END_RES VAL A  98
BEGIN_RES ASN A 112
REMARK  2 active torsions:
REMARK  status: ('A' for Active; 'I' for Inactive)
REMARK   28  A    between atoms: CA   and  CB  
REMARK   29  A    between atoms: CB   and  CG  
REMARK       I    between atoms: CG   and  ND2 
ROOT
ATOM     87  CA  ASN A 112     -11.790  -8.793  14.069  1.00 37.70     0.185 C 
ENDROOT
BRANCH  87  88
ATOM     88  CB  ASN A 112     -12.992  -7.945  14.465  1.00 26.24     0.137 C 
BRANCH  88  89
ATOM     89  CG  ASN A 112     -13.824  -8.571  15.562  1.00 21.77     0.217 C 
ATOM     90  ND2 ASN A 112     -14.979  -9.119  15.184  1.00  9.31    -0.370 N 
ATOM     91  H04 ASN A 112     -15.580  -9.552  15.870  1.00  9.31     0.159 HD
ATOM     92  H05 ASN A 112     -15.252  -9.101  14.212  1.00  9.31     0.159 HD
ATOM     93  OD1 ASN A 112     -13.439  -8.561  16.737  1.00 21.61    -0.274 OA
ENDBRANCH  88  89
ENDBRANCH  87  88
END_RES ASN A 112
BEGIN_RES PHE A 114
REMARK  2 active torsions:
REMARK  status: ('A' for Active; 'I' for Inactive)
REMARK   30  A    between atoms: CA   and  CB  
REMARK   31  A    between atoms: CB   and  CG  
ROOT
ATOM     94  CA  PHE A 114      -7.754  -3.619  17.012  1.00 26.06     0.180 C 
ENDROOT
BRANCH  94  95
ATOM     95  CB  PHE A 114      -8.890  -3.080  17.867  1.00 19.95     0.073 C 
BRANCH  95  96
ATOM     96  CG  PHE A 114      -8.750  -1.628  18.191  1.00 17.65    -0.056 A 
ATOM     97  CD1 PHE A 114      -8.315  -0.721  17.229  1.00 13.01     0.007 A 
ATOM     98  CE1 PHE A 114      -8.156   0.623  17.537  1.00  6.74     0.001 A 
ATOM     99  CZ  PHE A 114      -8.435   1.081  18.822  1.00  6.27     0.000 A 
ATOM    100  CE2 PHE A 114      -8.870   0.189  19.788  1.00 17.36     0.001 A 
ATOM    101  CD2 PHE A 114      -9.026  -1.165  19.470  1.00 18.39     0.007 A 
ENDBRANCH  95  96
ENDBRANCH  94  95
END_RES PHE A 114
BEGIN_RES VAL A 116
REMARK  1 active torsions:
REMARK  status: ('A' for Active; 'I' for Inactive)
REMARK   32  A    between atoms: CA   and  CB  
ROOT
ATOM    102  CA  VAL A 116      -2.467   0.283  18.565  1.00 13.48     0.180 C 
ENDROOT
BRANCH 102 103
ATOM    103  CB  VAL A 116      -3.101   1.238  19.599  1.00 20.86     0.009 C 
ATOM    104  CG1 VAL A 116      -2.971   2.683  19.108  1.00 25.01     0.012 C 
ATOM    105  CG2 VAL A 116      -4.542   0.867  19.862  1.00 25.34     0.012 C 
ENDBRANCH 102 103
END_RES VAL A 116
BEGIN_RES ILE A 123
REMARK  2 active torsions:
REMARK  status: ('A' for Active; 'I' for Inactive)
REMARK   33  A    between atoms: CA   and  CB  
REMARK   34  A    between atoms: CB   and  CG1 
ROOT
ATOM    106  CA  ILE A 123       1.557  -1.626  23.222  1.00 15.07     0.180 C 
ENDROOT
BRANCH 106 107
ATOM    107  CB  ILE A 123       1.697  -0.112  23.461  1.00 14.41     0.013 C 
ATOM    108  CG2 ILE A 123       3.107   0.210  23.924  1.00 18.35     0.012 C 
BRANCH 107 109
ATOM    109  CG1 ILE A 123       1.372   0.659  22.184  1.00 15.23     0.002 C 
ATOM    110  CD1 ILE A 123       0.244   1.649  22.344  1.00 14.67     0.005 C 
ENDBRANCH 107 109
ENDBRANCH 106 107
END_RES ILE A 123
BEGIN_RES LEU A 124
REMARK  2 active torsions:
REMARK  status: ('A' for Active; 'I' for Inactive)
REMARK   35  A    between atoms: CA   and  CB  
REMARK   36  A    between atoms: CB   and  CG  
ROOT
ATOM    111  CA  LEU A 124      -2.057  -2.686  23.524  1.00 11.86     0.177 C 
ENDROOT
BRANCH 111 112
ATOM    112  CB  LEU A 124      -2.698  -1.652  24.429  1.00 14.60     0.038 C 
BRANCH 112 113
ATOM    113  CG  LEU A 124      -2.608  -0.249  23.847  1.00 16.19    -0.020 C 
ATOM    114  CD1 LEU A 124      -4.017   0.211  23.428  1.00 22.07     0.009 C 
ATOM    115  CD2 LEU A 124      -1.993   0.679  24.865  1.00  9.12     0.009 C 
ENDBRANCH 112 113
ENDBRANCH 111 112
END_RES LEU A 124
BEGIN_RES PHE A 126
REMARK  2 active torsions:
REMARK  status: ('A' for Active; 'I' for Inactive)
REMARK   37  A    between atoms: CA   and  CB  
REMARK   38  A    between atoms: CB   and  CG  
ROOT
ATOM    116  CA  PHE A 126      -8.784  -4.792  22.233  1.00 23.15     0.180 C 
ENDROOT
BRANCH 116 117
ATOM    117  CB  PHE A 126      -9.823  -4.011  21.461  1.00 20.65     0.073 C 
BRANCH 117 118
ATOM    118  CG  PHE A 126     -10.948  -3.540  22.297  1.00 23.65    -0.056 A 
ATOM    119  CD2 PHE A 126     -12.211  -4.089  22.155  1.00 36.63     0.007 A 
ATOM    120  CE2 PHE A 126     -13.276  -3.643  22.949  1.00 36.27     0.001 A 
ATOM    121  CZ  PHE A 126     -13.068  -2.642  23.887  1.00 18.06     0.000 A 
ATOM    122  CE1 PHE A 126     -11.809  -2.094  24.033  1.00  5.50     0.001 A 
ATOM    123  CD1 PHE A 126     -10.754  -2.546  23.240  1.00 15.29     0.007 A 
ENDBRANCH 117 118
ENDBRANCH 116 117
END_RES PHE A 126
BEGIN_RES TRP A 131
REMARK  2 active torsions:
REMARK  status: ('A' for Active; 'I' for Inactive)
REMARK   39  A    between atoms: CA   and  CB  
REMARK   40  A    between atoms: CB   and  CG  
ROOT
ATOM    124  CA  TRP A 131      -8.096  -3.335  26.542  1.00 14.52     0.181 C 
ENDROOT
BRANCH 124 125
ATOM    125  CB  TRP A 131      -7.651  -1.877  26.607  1.00 13.06     0.075 C 
BRANCH 125 126
ATOM    126  CG  TRP A 131      -8.035  -1.056  25.396  1.00 16.97    -0.028 A 
ATOM    127  CD2 TRP A 131      -9.114  -0.122  25.307  1.00 11.34    -0.002 A 
ATOM    128  CE2 TRP A 131      -9.102   0.416  24.005  1.00  5.87     0.042 A 
ATOM    129  CE3 TRP A 131     -10.094   0.310  26.208  1.00  3.80     0.014 A 
ATOM    130  CZ2 TRP A 131     -10.030   1.369  23.582  1.00  1.35     0.030 A 
ATOM    131  NE1 TRP A 131      -8.063  -0.164  23.330  1.00 13.90    -0.365 N 
ATOM    132  CH2 TRP A 131     -10.979   1.776  24.487  1.00  1.00     0.002 A 
ATOM    133  CZ3 TRP A 131     -11.017   1.253  25.793  1.00  1.00     0.001 A 
ATOM    134  CD1 TRP A 131      -7.426  -1.047  24.171  1.00 17.22     0.096 A 
ATOM    135  H07 TRP A 131      -7.806   0.025  22.372  1.00 13.90     0.165 HD
ENDBRANCH 125 126
ENDBRANCH 124 125
END_RES TRP A 131
BEGIN_RES LEU A 148
REMARK  2 active torsions:
REMARK  status: ('A' for Active; 'I' for Inactive)
REMARK   41  A    between atoms: CA   and  CB  
REMARK   42  A    between atoms: CB   and  CG  
ROOT
ATOM    136  CA  LEU A 148      -9.018   3.259  29.295  1.00 16.99     0.177 C 
ENDROOT
BRANCH 136 137
ATOM    137  CB  LEU A 148      -8.166   2.574  28.236  1.00  6.39     0.038 C 
BRANCH 137 138
ATOM    138  CG  LEU A 148      -7.538   3.364  27.106  1.00  1.00    -0.020 C 
ATOM    139  CD2 LEU A 148      -8.602   4.022  26.277  1.00  1.00     0.009 C 
ATOM    140  CD1 LEU A 148      -6.715   2.411  26.259  1.00  2.71     0.009 C 
ENDBRANCH 137 138
ENDBRANCH 136 137
END_RES LEU A 148
BEGIN_RES THR A 154
REMARK  2 active torsions:
REMARK  status: ('A' for Active; 'I' for Inactive)
REMARK   43  A    between atoms: CA   and  CB  
REMARK   44  A    between atoms: CB   and  OG1 
ROOT
ATOM    141  CA  THR A 154     -15.990   3.959  24.426  1.00 20.45     0.205 C 
ENDROOT
BRANCH 141 142
ATOM    142  CB  THR A 154     -14.777   4.829  24.694  1.00 16.79     0.146 C 
ATOM    143  CG2 THR A 154     -13.629   4.420  23.791  1.00 20.24     0.042 C 
BRANCH 142 144
ATOM    144  OG1 THR A 154     -15.116   6.195  24.422  1.00 18.84    -0.393 OA
ATOM    145  H06 THR A 154     -14.695   6.764  25.070  1.00 18.84     0.210 HD
ENDBRANCH 142 144
ENDBRANCH 141 142
END_RES THR A 154
BEGIN_RES VAL A 158
REMARK  1 active torsions:
REMARK  status: ('A' for Active; 'I' for Inactive)
REMARK   45  A    between atoms: CA   and  CB  
ROOT
ATOM    146  CA  VAL A 158     -15.487  -0.189  19.892  1.00 15.49     0.180 C 
ENDROOT
BRANCH 146 147
ATOM    147  CB  VAL A 158     -14.291  -0.273  20.822  1.00  6.52     0.009 C 
ATOM    148  CG1 VAL A 158     -13.245  -1.215  20.271  1.00  1.00     0.012 C 
ATOM    149  CG2 VAL A 158     -13.724   1.102  21.001  1.00  5.99     0.012 C 
ENDBRANCH 146 147
END_RES VAL A 158
BEGIN_RES LEU A 161
REMARK  2 active torsions:
REMARK  status: ('A' for Active; 'I' for Inactive)
REMARK   46  A    between atoms: CA   and  CB  
REMARK   47  A    between atoms: CB   and  CG  
ROOT
ATOM    150  CA  LEU A 161     -18.031  -1.858  15.935  1.00 13.31     0.177 C 
ENDROOT
BRANCH 150 151
ATOM    151  CB  LEU A 161     -17.046  -0.706  16.001  1.00 14.13     0.038 C 
BRANCH 151 152
ATOM    152  CG  LEU A 161     -17.644   0.695  15.982  1.00 19.39    -0.020 C 
ATOM    153  CD2 LEU A 161     -18.084   1.057  14.584  1.00 27.75     0.009 C 
ATOM    154  CD1 LEU A 161     -16.608   1.673  16.466  1.00 18.59     0.009 C 
ENDBRANCH 151 152
ENDBRANCH 150 151
END_RES LEU A 161
BEGIN_RES GLN A 168
REMARK  3 active torsions:
REMARK  status: ('A' for Active; 'I' for Inactive)
REMARK   48  A    between atoms: CA   and  CB  
REMARK   49  A    between atoms: CB   and  CG  
REMARK   50  A    between atoms: CG   and  CD  
REMARK       I    between atoms: CD   and  NE2 
ROOT
ATOM    155  CA  GLN A 168     -22.035  -6.020   8.155  1.00 30.94     0.177 C 
ENDROOT
BRANCH 155 156
ATOM    156  CB  GLN A 168     -23.054  -5.218   8.946  1.00 41.76     0.044 C 
BRANCH 156 157
ATOM    157  CG  GLN A 168     -24.481  -5.425   8.516  1.00 61.20     0.105 C 
BRANCH 157 158
ATOM    158  CD  GLN A 168     -24.977  -4.292   7.639  1.00 75.49     0.215 C 
ATOM    159  NE2 GLN A 168     -24.797  -4.441   6.325  1.00 85.00    -0.370 N 
ATOM    160  H06 GLN A 168     -25.105  -3.719   5.689  1.00 85.00     0.159 HD
ATOM    161  H07 GLN A 168     -24.354  -5.275   5.968  1.00 85.00     0.159 HD
ATOM    162  OE1 GLN A 168     -25.512  -3.289   8.132  1.00 73.64    -0.274 OA
ENDBRANCH 157 158
ENDBRANCH 156 157
ENDBRANCH 155 156
END_RES GLN A 168
ENDMDL
MODEL 6
REMARK VINA RESULT:      -7.9      1.186      2.667
REMARK  Name = human_CD1d_NP40_pred.rank_0
REMARK  35 active torsions:
REMARK  status: ('A' for Active; 'I' for Inactive)
REMARK    1  A    between atoms: O_2  and  C_23
REMARK    2  A    between atoms: O_2  and  C_24
REMARK    3  A    between atoms: C_3  and  C_5
REMARK    4  A    between atoms: O_4  and  C_25
REMARK    5  A    between atoms: O_4  and  C_26
REMARK    6  A    between atoms: C_5  and  C_7
REMARK    7  A    between atoms: O_6  and  C_27
REMARK    8  A    between atoms: O_6  and  C_28
REMARK    9  A    between atoms: C_7  and  C_9
REMARK   10  A    between atoms: O_8  and  C_29
REMARK   11  A    between atoms: O_8  and  C_30
REMARK   12  A    between atoms: C_9  and  C_11
REMARK   13  A    between atoms: O_10  and  C_31
REMARK   14  A    between atoms: O_10  and  C_32
REMARK   15  A    between atoms: C_11  and  C_13
REMARK   16  A    between atoms: O_12  and  C_33
REMARK   17  A    between atoms: O_12  and  C_34
REMARK   18  A    between atoms: C_13  and  C_15
REMARK   19  A    between atoms: O_14  and  C_35
REMARK   20  A    between atoms: O_14  and  C_36
REMARK   21  A    between atoms: C_15  and  C_17
REMARK   22  A    between atoms: O_16  and  C_37
REMARK   23  A    between atoms: O_16  and  C_38
REMARK   24  A    between atoms: C_17  and  C_19
REMARK   25  A    between atoms: O_18  and  C_39
REMARK   26  A    between atoms: O_18  and  C_40
REMARK   27  A    between atoms: C_24  and  C_25
REMARK   28  A    between atoms: C_26  and  C_27
REMARK   29  A    between atoms: C_28  and  C_29
REMARK   30  A    between atoms: C_30  and  C_31
REMARK   31  A    between atoms: C_32  and  C_33
REMARK   32  A    between atoms: C_34  and  C_35
REMARK   33  A    between atoms: C_36  and  C_37
REMARK   34  A    between atoms: C_38  and  C_39
REMARK   35  A    between atoms: C_40  and  C_41
REMARK                            x       y       z     vdW  Elec       q    Type
REMARK                         _______ _______ _______ _____ _____    ______ ____
ROOT
ATOM      1  O   UNL     1     -13.599  -0.141  15.370  0.00  0.00    +0.000 OA
ENDROOT
BRANCH   1   2
ATOM      2  C   UNL     1     -13.937   1.238  15.115  0.00  0.00    +0.000 C 
BRANCH   2   3
ATOM      3  C   UNL     1     -13.293   1.700  13.797  0.00  0.00    +0.000 C 
BRANCH   3   4
ATOM      4  O   UNL     1     -14.196   2.596  13.099  0.00  0.00    +0.000 OA
BRANCH   4   5
ATOM      5  C   UNL     1     -14.994   3.354  14.032  0.00  0.00    +0.000 C 
BRANCH   5   6
ATOM      6  C   UNL     1     -16.194   3.917  13.323  0.00  0.00    +0.000 C 
BRANCH   6   7
ATOM      7  O   UNL     1     -15.990   3.783  11.876  0.00  0.00    +0.000 OA
BRANCH   7   8
ATOM      8  C   UNL     1     -16.217   4.975  11.128  0.00  0.00    +0.000 C 
BRANCH   8   9
ATOM      9  C   UNL     1     -16.090   4.698   9.623  0.00  0.00    +0.000 C 
BRANCH   9  10
ATOM     10  O   UNL     1     -16.445   5.912   8.878  0.00  0.00    +0.000 OA
BRANCH  10  11
ATOM     11  C   UNL     1     -15.845   5.924   7.538  0.00  0.00    +0.000 C 
BRANCH  11  12
ATOM     12  C   UNL     1     -15.238   4.544   7.226  0.00  0.00    +0.000 C 
BRANCH  12  13
ATOM     13  O   UNL     1     -13.931   4.715   6.579  0.00  0.00    +0.000 OA
BRANCH  13  14
ATOM     14  C   UNL     1     -13.095   3.536   6.714  0.00  0.00    +0.000 C 
BRANCH  14  15
ATOM     15  C   UNL     1     -13.986   2.248   6.651  0.00  0.00    +0.000 C 
BRANCH  15  16
ATOM     16  O   UNL     1     -13.381   1.204   7.469  0.00  0.00    +0.000 OA
BRANCH  16  17
ATOM     17  C   UNL     1     -14.202   0.842   8.587  0.00  0.00    +0.000 C 
BRANCH  17  18
ATOM     18  C   UNL     1     -13.567  -0.311   9.368  0.00  0.00    +0.000 C 
BRANCH  18  19
ATOM     19  O   UNL     1     -13.632  -0.064  10.804  0.00  0.00    +0.000 OA
BRANCH  19  20
ATOM     20  C   UNL     1     -14.536  -0.965  11.437  0.00  0.00    +0.000 C 
BRANCH  20  22
ATOM     21  O   UNL     1     -12.441  -1.484  12.493  0.00  0.00    +0.000 OA
ATOM     22  C   UNL     1     -13.810  -1.870  12.425  0.00  0.00    +0.000 C 
ENDBRANCH  20  22
ENDBRANCH  19  20
ENDBRANCH  18  19
ENDBRANCH  17  18
ENDBRANCH  16  17
ENDBRANCH  15  16
ENDBRANCH  14  15
ENDBRANCH  13  14
ENDBRANCH  12  13
ENDBRANCH  11  12
ENDBRANCH  10  11
ENDBRANCH   9  10
ENDBRANCH   8   9
ENDBRANCH   7   8
ENDBRANCH   6   7
ENDBRANCH   5   6
ENDBRANCH   4   5
ENDBRANCH   3   4
ENDBRANCH   2   3
ENDBRANCH   1   2
BRANCH   1  23
ATOM     23  C   UNL     1     -13.226  -0.360  16.758  0.00  0.00    +0.000 C 
BRANCH  23  24
ATOM     24  C   UNL     1     -11.782   0.054  16.963  0.00  0.00    +0.000 C 
BRANCH  24  25
ATOM     25  O   UNL     1     -11.715   0.972  18.083  0.00  0.00    +0.000 OA
BRANCH  25  26
ATOM     26  C   UNL     1     -11.416   2.342  17.714  0.00  0.00    +0.000 C 
BRANCH  26  27
ATOM     27  C   UNL     1     -10.806   2.373  16.296  0.00  0.00    +0.000 C 
BRANCH  27  28
ATOM     28  O   UNL     1      -9.498   2.965  16.343  0.00  0.00    +0.000 OA
BRANCH  28  32
ATOM     29  C   UNL     1      -9.288   6.924  15.036  0.00  0.00    +0.000 A 
ATOM     30  C   UNL     1      -8.200   6.301  15.586  0.00  0.00    +0.000 A 
ATOM     31  C   UNL     1      -8.289   4.996  16.019  0.00  0.00    +0.000 A 
ATOM     32  C   UNL     1      -9.479   4.287  15.882  0.00  0.00    +0.000 A 
ATOM     33  C   UNL     1     -10.543   4.934  15.372  0.00  0.00    +0.000 A 
ATOM     34  C   UNL     1     -10.460   6.243  14.943  0.00  0.00    +0.000 A 
BRANCH  29  35
ATOM     35  C   UNL     1      -9.167   8.346  14.569  0.00  0.00    +0.000 C 
BRANCH  35  36
ATOM     36  C   UNL     1      -8.327   9.155  15.547  0.00  0.00    +0.000 C 
BRANCH  36  37
ATOM     37  C   UNL     1      -6.998   9.551  14.908  0.00  0.00    +0.000 C 
BRANCH  37  38
ATOM     38  C   UNL     1      -5.890   9.836  15.913  0.00  0.00    +0.000 C 
BRANCH  38  39
ATOM     39  C   UNL     1      -5.575   8.570  16.747  0.00  0.00    +0.000 C 
BRANCH  39  40
ATOM     40  C   UNL     1      -4.991   7.481  15.853  0.00  0.00    +0.000 C 
BRANCH  40  41
ATOM     41  C   UNL     1      -4.328   6.396  16.674  0.00  0.00    +0.000 C 
BRANCH  41  43
ATOM     42  C   UNL     1      -4.514   5.736  19.081  0.00  0.00    +0.000 C 
ATOM     43  C   UNL     1      -4.206   6.876  18.121  0.00  0.00    +0.000 C 
ENDBRANCH  41  43
ENDBRANCH  40  41
ENDBRANCH  39  40
ENDBRANCH  38  39
ENDBRANCH  37  38
ENDBRANCH  36  37
ENDBRANCH  35  36
ENDBRANCH  29  35
ENDBRANCH  28  32
ENDBRANCH  27  28
ENDBRANCH  26  27
ENDBRANCH  25  26
ENDBRANCH  24  25
ENDBRANCH  23  24
ENDBRANCH   1  23
TORSDOF 35
BEGIN_RES LEU A  10
REMARK  2 active torsions:
REMARK  status: ('A' for Active; 'I' for Inactive)
REMARK    1  A    between atoms: CA   and  CB  
REMARK    2  A    between atoms: CB   and  CG  
ROOT
ATOM      1  CA  LEU A  10     -10.775  -4.871   5.898  1.00 25.14     0.177 C 
ENDROOT
BRANCH   1   2
ATOM      2  CB  LEU A  10     -12.191  -4.387   6.226  1.00 17.87     0.038 C 
BRANCH   2   3
ATOM      3  CG  LEU A  10     -12.446  -2.913   5.904  1.00 24.95    -0.020 C 
ATOM      4  CD2 LEU A  10     -13.750  -2.504   6.501  1.00 26.38     0.009 C 
ATOM      5  CD1 LEU A  10     -12.447  -2.677   4.403  1.00 28.12     0.009 C 
ENDBRANCH   2   3
ENDBRANCH   1   2
END_RES LEU A  10
BEGIN_RES CYS A  12
REMARK  2 active torsions:
REMARK  status: ('A' for Active; 'I' for Inactive)
REMARK    3  A    between atoms: CA   and  CB  
REMARK    4  A    between atoms: CB   and  SG  
ROOT
ATOM      6  CA  CYS A  12      -8.555   0.470   8.750  1.00 23.16     0.185 C 
ENDROOT
BRANCH   6   7
ATOM      7  CB  CYS A  12      -9.828   0.763   9.555  1.00 20.43     0.105 C 
BRANCH   7   8
ATOM      8  SG  CYS A  12     -10.559   2.413   9.323  1.00 24.64    -0.180 SA
ATOM      9  H04 CYS A  12     -11.844   2.389   9.700  1.00 24.64     0.101 HD
ENDBRANCH   7   8
ENDBRANCH   6   7
END_RES CYS A  12
BEGIN_RES GLN A  14
REMARK  3 active torsions:
REMARK  status: ('A' for Active; 'I' for Inactive)
REMARK    5  A    between atoms: CA   and  CB  
REMARK    6  A    between atoms: CB   and  CG  
REMARK    7  A    between atoms: CG   and  CD  
REMARK       I    between atoms: CD   and  NE2 
ROOT
ATOM     10  CA  GLN A  14      -4.645   5.402  11.377  1.00 10.43     0.177 C 
ENDROOT
BRANCH  10  11
ATOM     11  CB  GLN A  14      -5.541   5.549  12.608  1.00 14.45     0.044 C 
BRANCH  11  12
ATOM     12  CG  GLN A  14      -6.471   6.739  12.556  1.00 13.74     0.105 C 
BRANCH  12  13
ATOM     13  CD  GLN A  14      -7.476   6.637  11.433  1.00 16.29     0.215 C 
ATOM     14  NE2 GLN A  14      -8.454   5.772  11.599  1.00  8.57    -0.370 N 
ATOM     15  H06 GLN A  14      -9.157   5.662  10.882  1.00  8.57     0.159 HD
ATOM     16  H07 GLN A  14      -8.502   5.220  12.443  1.00  8.57     0.159 HD
ATOM     17  OE1 GLN A  14      -7.376   7.329  10.433  1.00 23.55    -0.274 OA
ENDBRANCH  12  13
ENDBRANCH  11  12
ENDBRANCH  10  11
END_RES GLN A  14
BEGIN_RES SER A  16
REMARK  2 active torsions:
REMARK  status: ('A' for Active; 'I' for Inactive)
REMARK    8  A    between atoms: CA   and  CB  
REMARK    9  A    between atoms: CB   and  OG  
ROOT
ATOM     18  CA  SER A  16      -1.305  10.019  14.282  1.00  2.34     0.200 C 
ENDROOT
BRANCH  18  19
ATOM     19  CB  SER A  16      -2.242   9.935  15.479  1.00  3.12     0.199 C 
BRANCH  19  20
ATOM     20  OG  SER A  16      -1.889   8.839  16.305  1.00  1.00    -0.398 OA
ATOM     21  H04 SER A  16      -1.335   9.146  17.025  1.00  1.00     0.209 HD
ENDBRANCH  19  20
ENDBRANCH  18  19
END_RES SER A  16
BEGIN_RES LEU A  32
REMARK  2 active torsions:
REMARK  status: ('A' for Active; 'I' for Inactive)
REMARK   10  A    between atoms: CA   and  CB  
REMARK   11  A    between atoms: CB   and  CG  
ROOT
ATOM     22  CA  LEU A  32     -10.272  -4.106   1.587  1.00 16.16     0.177 C 
ENDROOT
BRANCH  22  23
ATOM     23  CB  LEU A  32     -11.613  -3.858   0.880  1.00 12.35     0.038 C 
BRANCH  23  24
ATOM     24  CG  LEU A  32     -12.498  -5.121   0.868  1.00  9.77    -0.020 C 
ATOM     25  CD1 LEU A  32     -13.025  -5.407   2.254  1.00  4.35     0.009 C 
ATOM     26  CD2 LEU A  32     -13.649  -4.961  -0.090  1.00 10.60     0.009 C 
ENDBRANCH  23  24
ENDBRANCH  22  23
END_RES LEU A  32
BEGIN_RES HIS A  38
REMARK  2 active torsions:
REMARK  status: ('A' for Active; 'I' for Inactive)
REMARK   12  A    between atoms: CA   and  CB  
REMARK   13  A    between atoms: CB   and  CG  
ROOT
ATOM     27  CA  HIS A  38     -10.959   4.941   1.621  1.00 16.94     0.182 C 
ENDROOT
BRANCH  27  28
ATOM     28  CB  HIS A  38     -11.810   4.840   2.881  1.00 15.47     0.095 C 
BRANCH  28  29
ATOM     29  CG  HIS A  38     -13.010   3.961   2.730  1.00 18.62     0.053 A 
ATOM     30  CD2 HIS A  38     -14.196   4.176   2.113  1.00 15.06     0.116 A 
ATOM     31  NE2 HIS A  38     -14.932   3.027   2.248  1.00 18.12    -0.359 N 
ATOM     32  CE1 HIS A  38     -14.227   2.139   2.922  1.00 14.78     0.207 A 
ATOM     33  H06 HIS A  38     -15.865   2.883   1.888  1.00 18.12     0.166 HD
ATOM     34  ND1 HIS A  38     -13.063   2.678   3.227  1.00 16.58    -0.247 NA
ENDBRANCH  28  29
ENDBRANCH  27  28
END_RES HIS A  38
BEGIN_RES TRP A  63
REMARK  2 active torsions:
REMARK  status: ('A' for Active; 'I' for Inactive)
REMARK   14  A    between atoms: CA   and  CB  
REMARK   15  A    between atoms: CB   and  CG  
ROOT
ATOM     35  CA  TRP A  63     -22.437   6.257   6.543  1.00 27.04     0.181 C 
ENDROOT
BRANCH  35  36
ATOM     36  CB  TRP A  63     -22.360   6.642   5.068  1.00 31.37     0.075 C 
BRANCH  36  37
ATOM     37  CG  TRP A  63     -20.953   6.795   4.530  1.00 34.37    -0.028 A 
ATOM     38  CD2 TRP A  63     -19.883   5.843   4.616  1.00 33.79    -0.002 A 
ATOM     39  CE3 TRP A  63     -19.744   4.588   5.213  1.00 32.99     0.014 A 
ATOM     40  CE2 TRP A  63     -18.784   6.387   3.916  1.00 35.84     0.042 A 
ATOM     41  CZ3 TRP A  63     -18.531   3.924   5.095  1.00 32.93     0.001 A 
ATOM     42  CH2 TRP A  63     -17.456   4.491   4.392  1.00 39.24     0.002 A 
ATOM     43  CZ2 TRP A  63     -17.564   5.719   3.796  1.00 37.99     0.030 A 
ATOM     44  NE1 TRP A  63     -19.172   7.606   3.432  1.00 37.98    -0.365 N 
ATOM     45  H06 TRP A  63     -18.595   8.232   2.888  1.00 37.98     0.165 HD
ATOM     46  CD1 TRP A  63     -20.472   7.842   3.808  1.00 38.16     0.096 A 
ENDBRANCH  36  37
ENDBRANCH  35  36
END_RES TRP A  63
BEGIN_RES LEU A  66
REMARK  2 active torsions:
REMARK  status: ('A' for Active; 'I' for Inactive)
REMARK   16  A    between atoms: CA   and  CB  
REMARK   17  A    between atoms: CB   and  CG  
ROOT
ATOM     47  CA  LEU A  66     -20.004   6.489  11.120  1.00 10.90     0.177 C 
ENDROOT
BRANCH  47  48
ATOM     48  CB  LEU A  66     -19.626   5.453  10.069  1.00 13.57     0.038 C 
BRANCH  48  49
ATOM     49  CG  LEU A  66     -19.599   3.989  10.508  1.00  8.73    -0.020 C 
ATOM     50  CD1 LEU A  66     -19.747   3.880  12.003  1.00 14.23     0.009 C 
ATOM     51  CD2 LEU A  66     -20.729   3.264   9.822  1.00  1.92     0.009 C 
ENDBRANCH  48  49
ENDBRANCH  47  48
END_RES LEU A  66
BEGIN_RES PHE A  70
REMARK  2 active torsions:
REMARK  status: ('A' for Active; 'I' for Inactive)
REMARK   18  A    between atoms: CA   and  CB  
REMARK   19  A    between atoms: CB   and  CG  
ROOT
ATOM     52  CA  PHE A  70     -14.974   9.434  13.165  1.00  8.78     0.180 C 
ENDROOT
BRANCH  52  53
ATOM     53  CB  PHE A  70     -14.707   9.132  11.681  1.00  6.33     0.073 C 
BRANCH  53  54
ATOM     54  CG  PHE A  70     -13.951   7.850  11.458  1.00  3.42    -0.056 A 
ATOM     55  CD1 PHE A  70     -13.510   7.085  12.526  1.00 13.88     0.007 A 
ATOM     56  CE1 PHE A  70     -12.763   5.913  12.311  1.00 12.71     0.001 A 
ATOM     57  CZ  PHE A  70     -12.457   5.504  11.013  1.00  4.21     0.000 A 
ATOM     58  CE2 PHE A  70     -12.894   6.258   9.939  1.00  2.83     0.001 A 
ATOM     59  CD2 PHE A  70     -13.640   7.427  10.165  1.00  1.00     0.007 A 
ENDBRANCH  53  54
ENDBRANCH  52  53
END_RES PHE A  70
BEGIN_RES TYR A  73
REMARK  3 active torsions:
REMARK  status: ('A' for Active; 'I' for Inactive)
REMARK   20  A    between atoms: CA   and  CB  
REMARK   21  A    between atoms: CB   and  CG  
REMARK   22  A    between atoms: CZ   and  OH  
ROOT
ATOM     60  CA  TYR A  73     -13.212  10.166  17.260  1.00 12.17     0.180 C 
ENDROOT
BRANCH  60  61
ATOM     61  CB  TYR A  73     -13.301   8.846  16.517  1.00 12.84     0.073 C 
BRANCH  61  62
ATOM     62  CG  TYR A  73     -13.505   7.681  17.420  1.00 15.89    -0.056 A 
ATOM     63  CD1 TYR A  73     -13.557   6.397  16.924  1.00 16.00     0.010 A 
ATOM     64  CE1 TYR A  73     -13.779   5.306  17.765  1.00 13.55     0.037 A 
ATOM     65  CZ  TYR A  73     -13.951   5.519  19.118  1.00 18.13     0.065 A 
ATOM     66  CE2 TYR A  73     -13.903   6.791  19.639  1.00 15.89     0.037 A 
ATOM     67  CD2 TYR A  73     -13.680   7.865  18.787  1.00 21.86     0.010 A 
BRANCH  65  68
ATOM     68  OH  TYR A  73     -14.165   4.459  19.965  1.00 12.12    -0.361 OA
ATOM     69  H08 TYR A  73     -15.064   4.494  20.301  1.00 12.12     0.217 HD
ENDBRANCH  65  68
ENDBRANCH  61  62
ENDBRANCH  60  61
END_RES TYR A  73
BEGIN_RES PHE A  77
REMARK  2 active torsions:
REMARK  status: ('A' for Active; 'I' for Inactive)
REMARK   23  A    between atoms: CA   and  CB  
REMARK   24  A    between atoms: CB   and  CG  
ROOT
ATOM     70  CA  PHE A  77      -8.400  10.581  20.110  1.00 17.17     0.180 C 
ENDROOT
BRANCH  70  71
ATOM     71  CB  PHE A  77      -8.228   9.750  18.851  1.00 10.44     0.073 C 
BRANCH  71  72
ATOM     72  CG  PHE A  77      -8.623   8.316  19.017  1.00  6.07    -0.056 A 
ATOM     73  CD2 PHE A  77      -9.882   7.891  18.660  1.00  9.61     0.007 A 
ATOM     74  CE2 PHE A  77     -10.257   6.561  18.809  1.00  1.00     0.001 A 
ATOM     75  CZ  PHE A  77      -9.355   5.642  19.319  1.00  1.92     0.000 A 
ATOM     76  CE1 PHE A  77      -8.091   6.050  19.679  1.00  9.25     0.001 A 
ATOM     77  CD1 PHE A  77      -7.729   7.388  19.526  1.00  9.63     0.007 A 
ENDBRANCH  71  72
ENDBRANCH  70  71
END_RES PHE A  77
BEGIN_RES LEU A  96
REMARK  2 active torsions:
REMARK  status: ('A' for Active; 'I' for Inactive)
REMARK   25  A    between atoms: CA   and  CB  
REMARK   26  A    between atoms: CB   and  CG  
ROOT
ATOM     78  CA  LEU A  96       0.717   6.481  17.359  1.00 16.08     0.177 C 
ENDROOT
BRANCH  78  79
ATOM     79  CB  LEU A  96      -0.370   7.101  18.230  1.00 18.83     0.038 C 
BRANCH  79  80
ATOM     80  CG  LEU A  96      -0.089   7.045  19.731  1.00 19.03    -0.020 C 
ATOM     81  CD1 LEU A  96       0.627   8.311  20.141  1.00 28.17     0.009 C 
ATOM     82  CD2 LEU A  96      -1.383   6.954  20.507  1.00 22.01     0.009 C 
ENDBRANCH  79  80
ENDBRANCH  78  79
END_RES LEU A  96
BEGIN_RES VAL A  98
REMARK  1 active torsions:
REMARK  status: ('A' for Active; 'I' for Inactive)
REMARK   27  A    between atoms: CA   and  CB  
ROOT
ATOM     83  CA  VAL A  98      -3.928   2.082  14.897  1.00 19.83     0.180 C 
ENDROOT
BRANCH  83  84
ATOM     84  CB  VAL A  98      -5.203   2.807  15.281  1.00 17.87     0.009 C 
ATOM     85  CG2 VAL A  98      -5.283   2.953  16.778  1.00 29.90     0.012 C 
ATOM     86  CG1 VAL A  98      -6.399   2.044  14.750  1.00 14.79     0.012 C 
ENDBRANCH  83  84
END_RES VAL A  98
BEGIN_RES ASN A 112
REMARK  2 active torsions:
REMARK  status: ('A' for Active; 'I' for Inactive)
REMARK   28  A    between atoms: CA   and  CB  
REMARK   29  A    between atoms: CB   and  CG  
REMARK       I    between atoms: CG   and  ND2 
ROOT
ATOM     87  CA  ASN A 112     -11.790  -8.793  14.069  1.00 37.70     0.185 C 
ENDROOT
BRANCH  87  88
ATOM     88  CB  ASN A 112     -12.992  -7.945  14.465  1.00 26.24     0.137 C 
BRANCH  88  89
ATOM     89  CG  ASN A 112     -13.814  -8.563  15.573  1.00 21.77     0.217 C 
ATOM     90  ND2 ASN A 112     -14.964  -9.129  15.207  1.00  9.31    -0.370 N 
ATOM     91  H04 ASN A 112     -15.560  -9.558  15.901  1.00  9.31     0.159 HD
ATOM     92  H05 ASN A 112     -15.240  -9.129  14.235  1.00  9.31     0.159 HD
ATOM     93  OD1 ASN A 112     -13.427  -8.531  16.747  1.00 21.61    -0.274 OA
ENDBRANCH  88  89
ENDBRANCH  87  88
END_RES ASN A 112
BEGIN_RES PHE A 114
REMARK  2 active torsions:
REMARK  status: ('A' for Active; 'I' for Inactive)
REMARK   30  A    between atoms: CA   and  CB  
REMARK   31  A    between atoms: CB   and  CG  
ROOT
ATOM     94  CA  PHE A 114      -7.754  -3.619  17.012  1.00 26.06     0.180 C 
ENDROOT
BRANCH  94  95
ATOM     95  CB  PHE A 114      -8.890  -3.080  17.867  1.00 19.95     0.073 C 
BRANCH  95  96
ATOM     96  CG  PHE A 114      -8.682  -1.667  18.306  1.00 17.65    -0.056 A 
ATOM     97  CD1 PHE A 114      -9.103  -1.241  19.563  1.00 13.01     0.007 A 
ATOM     98  CE1 PHE A 114      -8.936   0.079  19.960  1.00  6.74     0.001 A 
ATOM     99  CZ  PHE A 114      -8.339   0.996  19.100  1.00  6.27     0.000 A 
ATOM    100  CE2 PHE A 114      -7.916   0.584  17.847  1.00 17.36     0.001 A 
ATOM    101  CD2 PHE A 114      -8.088  -0.747  17.453  1.00 18.39     0.007 A 
ENDBRANCH  95  96
ENDBRANCH  94  95
END_RES PHE A 114
BEGIN_RES VAL A 116
REMARK  1 active torsions:
REMARK  status: ('A' for Active; 'I' for Inactive)
REMARK   32  A    between atoms: CA   and  CB  
ROOT
ATOM    102  CA  VAL A 116      -2.467   0.283  18.565  1.00 13.48     0.180 C 
ENDROOT
BRANCH 102 103
ATOM    103  CB  VAL A 116      -3.101   1.238  19.599  1.00 20.86     0.009 C 
ATOM    104  CG1 VAL A 116      -2.722   2.683  19.262  1.00 25.01     0.012 C 
ATOM    105  CG2 VAL A 116      -4.600   1.054  19.654  1.00 25.34     0.012 C 
ENDBRANCH 102 103
END_RES VAL A 116
BEGIN_RES ILE A 123
REMARK  2 active torsions:
REMARK  status: ('A' for Active; 'I' for Inactive)
REMARK   33  A    between atoms: CA   and  CB  
REMARK   34  A    between atoms: CB   and  CG1 
ROOT
ATOM    106  CA  ILE A 123       1.557  -1.626  23.222  1.00 15.07     0.180 C 
ENDROOT
BRANCH 106 107
ATOM    107  CB  ILE A 123       1.697  -0.112  23.461  1.00 14.41     0.013 C 
ATOM    108  CG2 ILE A 123       3.116   0.215  23.891  1.00 18.35     0.012 C 
BRANCH 107 109
ATOM    109  CG1 ILE A 123       1.338   0.660  22.194  1.00 15.23     0.002 C 
ATOM    110  CD1 ILE A 123       0.219   1.655  22.387  1.00 14.67     0.005 C 
ENDBRANCH 107 109
ENDBRANCH 106 107
END_RES ILE A 123
BEGIN_RES LEU A 124
REMARK  2 active torsions:
REMARK  status: ('A' for Active; 'I' for Inactive)
REMARK   35  A    between atoms: CA   and  CB  
REMARK   36  A    between atoms: CB   and  CG  
ROOT
ATOM    111  CA  LEU A 124      -2.057  -2.686  23.524  1.00 11.86     0.177 C 
ENDROOT
BRANCH 111 112
ATOM    112  CB  LEU A 124      -2.698  -1.652  24.429  1.00 14.60     0.038 C 
BRANCH 112 113
ATOM    113  CG  LEU A 124      -2.597  -0.247  23.853  1.00 16.19    -0.020 C 
ATOM    114  CD1 LEU A 124      -3.978   0.176  23.318  1.00 22.07     0.009 C 
ATOM    115  CD2 LEU A 124      -2.093   0.696  24.916  1.00  9.12     0.009 C 
ENDBRANCH 112 113
ENDBRANCH 111 112
END_RES LEU A 124
BEGIN_RES PHE A 126
REMARK  2 active torsions:
REMARK  status: ('A' for Active; 'I' for Inactive)
REMARK   37  A    between atoms: CA   and  CB  
REMARK   38  A    between atoms: CB   and  CG  
ROOT
ATOM    116  CA  PHE A 126      -8.784  -4.792  22.233  1.00 23.15     0.180 C 
ENDROOT
BRANCH 116 117
ATOM    117  CB  PHE A 126      -9.823  -4.011  21.461  1.00 20.65     0.073 C 
BRANCH 117 118
ATOM    118  CG  PHE A 126     -10.947  -3.538  22.298  1.00 23.65    -0.056 A 
ATOM    119  CD2 PHE A 126     -12.198  -4.120  22.194  1.00 36.63     0.007 A 
ATOM    120  CE2 PHE A 126     -13.262  -3.672  22.988  1.00 36.27     0.001 A 
ATOM    121  CZ  PHE A 126     -13.064  -2.635  23.888  1.00 18.06     0.000 A 
ATOM    122  CE1 PHE A 126     -11.817  -2.053  23.996  1.00  5.50     0.001 A 
ATOM    123  CD1 PHE A 126     -10.763  -2.508  23.203  1.00 15.29     0.007 A 
ENDBRANCH 117 118
ENDBRANCH 116 117
END_RES PHE A 126
BEGIN_RES TRP A 131
REMARK  2 active torsions:
REMARK  status: ('A' for Active; 'I' for Inactive)
REMARK   39  A    between atoms: CA   and  CB  
REMARK   40  A    between atoms: CB   and  CG  
ROOT
ATOM    124  CA  TRP A 131      -8.096  -3.335  26.542  1.00 14.52     0.181 C 
ENDROOT
BRANCH 124 125
ATOM    125  CB  TRP A 131      -7.651  -1.877  26.607  1.00 13.06     0.075 C 
BRANCH 125 126
ATOM    126  CG  TRP A 131      -8.013  -1.062  25.385  1.00 16.97    -0.028 A 
ATOM    127  CD2 TRP A 131      -9.084  -0.121  25.276  1.00 11.34    -0.002 A 
ATOM    128  CE2 TRP A 131      -9.051   0.408  23.970  1.00  5.87     0.042 A 
ATOM    129  CE3 TRP A 131     -10.072   0.325  26.161  1.00  3.80     0.014 A 
ATOM    130  CZ2 TRP A 131      -9.967   1.364  23.528  1.00  1.35     0.030 A 
ATOM    131  NE1 TRP A 131      -8.008  -0.185  23.313  1.00 13.90    -0.365 N 
ATOM    132  CH2 TRP A 131     -10.925   1.784  24.418  1.00  1.00     0.002 A 
ATOM    133  CZ3 TRP A 131     -10.984   1.271  25.727  1.00  1.00     0.001 A 
ATOM    134  CD1 TRP A 131      -7.388  -1.066  24.168  1.00 17.22     0.096 A 
ATOM    135  H07 TRP A 131      -7.738  -0.005  22.357  1.00 13.90     0.165 HD
ENDBRANCH 125 126
ENDBRANCH 124 125
END_RES TRP A 131
BEGIN_RES LEU A 148
REMARK  2 active torsions:
REMARK  status: ('A' for Active; 'I' for Inactive)
REMARK   41  A    between atoms: CA   and  CB  
REMARK   42  A    between atoms: CB   and  CG  
ROOT
ATOM    136  CA  LEU A 148      -9.018   3.259  29.295  1.00 16.99     0.177 C 
ENDROOT
BRANCH 136 137
ATOM    137  CB  LEU A 148      -8.166   2.574  28.236  1.00  6.39     0.038 C 
BRANCH 137 138
ATOM    138  CG  LEU A 148      -7.511   3.369  27.124  1.00  1.00    -0.020 C 
ATOM    139  CD2 LEU A 148      -8.556   4.017  26.263  1.00  1.00     0.009 C 
ATOM    140  CD1 LEU A 148      -6.655   2.422  26.304  1.00  2.71     0.009 C 
ENDBRANCH 137 138
ENDBRANCH 136 137
END_RES LEU A 148
BEGIN_RES THR A 154
REMARK  2 active torsions:
REMARK  status: ('A' for Active; 'I' for Inactive)
REMARK   43  A    between atoms: CA   and  CB  
REMARK   44  A    between atoms: CB   and  OG1 
ROOT
ATOM    141  CA  THR A 154     -15.990   3.959  24.426  1.00 20.45     0.205 C 
ENDROOT
BRANCH 141 142
ATOM    142  CB  THR A 154     -14.777   4.829  24.694  1.00 16.79     0.146 C 
ATOM    143  CG2 THR A 154     -13.613   4.385  23.829  1.00 20.24     0.042 C 
BRANCH 142 144
ATOM    144  OG1 THR A 154     -15.100   6.188  24.373  1.00 18.84    -0.393 OA
ATOM    145  H06 THR A 154     -14.393   6.764  24.671  1.00 18.84     0.210 HD
ENDBRANCH 142 144
ENDBRANCH 141 142
END_RES THR A 154
BEGIN_RES VAL A 158
REMARK  1 active torsions:
REMARK  status: ('A' for Active; 'I' for Inactive)
REMARK   45  A    between atoms: CA   and  CB  
ROOT
ATOM    146  CA  VAL A 158     -15.487  -0.189  19.892  1.00 15.49     0.180 C 
ENDROOT
BRANCH 146 147
ATOM    147  CB  VAL A 158     -14.291  -0.273  20.822  1.00  6.52     0.009 C 
ATOM    148  CG1 VAL A 158     -13.278  -1.271  20.309  1.00  1.00     0.012 C 
ATOM    149  CG2 VAL A 158     -13.679   1.088  20.941  1.00  5.99     0.012 C 
ENDBRANCH 146 147
END_RES VAL A 158
BEGIN_RES LEU A 161
REMARK  2 active torsions:
REMARK  status: ('A' for Active; 'I' for Inactive)
REMARK   46  A    between atoms: CA   and  CB  
REMARK   47  A    between atoms: CB   and  CG  
ROOT
ATOM    150  CA  LEU A 161     -18.031  -1.858  15.935  1.00 13.31     0.177 C 
ENDROOT
BRANCH 150 151
ATOM    151  CB  LEU A 161     -17.046  -0.706  16.001  1.00 14.13     0.038 C 
BRANCH 151 152
ATOM    152  CG  LEU A 161     -17.435   0.559  15.246  1.00 19.39    -0.020 C 
ATOM    153  CD2 LEU A 161     -18.867   0.929  15.550  1.00 27.75     0.009 C 
ATOM    154  CD1 LEU A 161     -17.268   0.315  13.770  1.00 18.59     0.009 C 
ENDBRANCH 151 152
ENDBRANCH 150 151
END_RES LEU A 161
BEGIN_RES GLN A 168
REMARK  3 active torsions:
REMARK  status: ('A' for Active; 'I' for Inactive)
REMARK   48  A    between atoms: CA   and  CB  
REMARK   49  A    between atoms: CB   and  CG  
REMARK   50  A    between atoms: CG   and  CD  
REMARK       I    between atoms: CD   and  NE2 
ROOT
ATOM    155  CA  GLN A 168     -22.035  -6.020   8.155  1.00 30.94     0.177 C 
ENDROOT
BRANCH 155 156
ATOM    156  CB  GLN A 168     -23.054  -5.218   8.946  1.00 41.76     0.044 C 
BRANCH 156 157
ATOM    157  CG  GLN A 168     -24.459  -5.751   8.875  1.00 61.20     0.105 C 
BRANCH 157 158
ATOM    158  CD  GLN A 168     -25.489  -4.665   9.114  1.00 75.49     0.215 C 
ATOM    159  NE2 GLN A 168     -26.319  -4.854  10.142  1.00 85.00    -0.370 N 
ATOM    160  H06 GLN A 168     -27.029  -4.167  10.351  1.00 85.00     0.159 HD
ATOM    161  H07 GLN A 168     -26.237  -5.686  10.710  1.00 85.00     0.159 HD
ATOM    162  OE1 GLN A 168     -25.547  -3.666   8.382  1.00 73.64    -0.274 OA
ENDBRANCH 157 158
ENDBRANCH 156 157
ENDBRANCH 155 156
END_RES GLN A 168
ENDMDL
MODEL 7
REMARK VINA RESULT:      -7.9      1.392      3.551
REMARK  Name = human_CD1d_NP40_pred.rank_0
REMARK  35 active torsions:
REMARK  status: ('A' for Active; 'I' for Inactive)
REMARK    1  A    between atoms: O_2  and  C_23
REMARK    2  A    between atoms: O_2  and  C_24
REMARK    3  A    between atoms: C_3  and  C_5
REMARK    4  A    between atoms: O_4  and  C_25
REMARK    5  A    between atoms: O_4  and  C_26
REMARK    6  A    between atoms: C_5  and  C_7
REMARK    7  A    between atoms: O_6  and  C_27
REMARK    8  A    between atoms: O_6  and  C_28
REMARK    9  A    between atoms: C_7  and  C_9
REMARK   10  A    between atoms: O_8  and  C_29
REMARK   11  A    between atoms: O_8  and  C_30
REMARK   12  A    between atoms: C_9  and  C_11
REMARK   13  A    between atoms: O_10  and  C_31
REMARK   14  A    between atoms: O_10  and  C_32
REMARK   15  A    between atoms: C_11  and  C_13
REMARK   16  A    between atoms: O_12  and  C_33
REMARK   17  A    between atoms: O_12  and  C_34
REMARK   18  A    between atoms: C_13  and  C_15
REMARK   19  A    between atoms: O_14  and  C_35
REMARK   20  A    between atoms: O_14  and  C_36
REMARK   21  A    between atoms: C_15  and  C_17
REMARK   22  A    between atoms: O_16  and  C_37
REMARK   23  A    between atoms: O_16  and  C_38
REMARK   24  A    between atoms: C_17  and  C_19
REMARK   25  A    between atoms: O_18  and  C_39
REMARK   26  A    between atoms: O_18  and  C_40
REMARK   27  A    between atoms: C_24  and  C_25
REMARK   28  A    between atoms: C_26  and  C_27
REMARK   29  A    between atoms: C_28  and  C_29
REMARK   30  A    between atoms: C_30  and  C_31
REMARK   31  A    between atoms: C_32  and  C_33
REMARK   32  A    between atoms: C_34  and  C_35
REMARK   33  A    between atoms: C_36  and  C_37
REMARK   34  A    between atoms: C_38  and  C_39
REMARK   35  A    between atoms: C_40  and  C_41
REMARK                            x       y       z     vdW  Elec       q    Type
REMARK                         _______ _______ _______ _____ _____    ______ ____
ROOT
ATOM      1  O   UNL     1      -8.354   3.362  13.226  0.00  0.00    +0.000 OA
ENDROOT
BRANCH   1   2
ATOM      2  C   UNL     1      -9.549   2.762  12.683  0.00  0.00    +0.000 C 
BRANCH   2   3
ATOM      3  C   UNL     1      -9.830   3.330  11.282  0.00  0.00    +0.000 C 
BRANCH   3   4
ATOM      4  O   UNL     1      -8.688   4.103  10.830  0.00  0.00    +0.000 OA
BRANCH   4   5
ATOM      5  C   UNL     1      -9.098   5.150   9.925  0.00  0.00    +0.000 C 
BRANCH   5   6
ATOM      6  C   UNL     1      -9.478   4.548   8.601  0.00  0.00    +0.000 C 
BRANCH   6   7
ATOM      7  O   UNL     1      -9.555   5.621   7.603  0.00  0.00    +0.000 OA
BRANCH   7   8
ATOM      8  C   UNL     1     -10.636   5.501   6.681  0.00  0.00    +0.000 C 
BRANCH   8   9
ATOM      9  C   UNL     1     -11.580   4.366   7.101  0.00  0.00    +0.000 C 
BRANCH   9  10
ATOM     10  O   UNL     1     -12.809   4.440   6.303  0.00  0.00    +0.000 OA
BRANCH  10  11
ATOM     11  C   UNL     1     -13.997   4.113   7.100  0.00  0.00    +0.000 C 
BRANCH  11  12
ATOM     12  C   UNL     1     -15.004   5.277   7.037  0.00  0.00    +0.000 C 
BRANCH  12  13
ATOM     13  O   UNL     1     -15.942   5.178   8.163  0.00  0.00    +0.000 OA
BRANCH  13  14
ATOM     14  C   UNL     1     -15.845   3.900   8.846  0.00  0.00    +0.000 C 
BRANCH  14  15
ATOM     15  C   UNL     1     -16.090   4.103  10.380  0.00  0.00    +0.000 C 
BRANCH  15  16
ATOM     16  O   UNL     1     -15.240   3.185  11.128  0.00  0.00    +0.000 OA
BRANCH  16  17
ATOM     17  C   UNL     1     -15.370   1.830  10.675  0.00  0.00    +0.000 C 
BRANCH  17  18
ATOM     18  C   UNL     1     -15.811   0.921  11.824  0.00  0.00    +0.000 C 
BRANCH  18  19
ATOM     19  O   UNL     1     -14.703   0.090  12.284  0.00  0.00    +0.000 OA
BRANCH  19  20
ATOM     20  C   UNL     1     -14.436  -0.963  11.361  0.00  0.00    +0.000 C 
BRANCH  20  22
ATOM     21  O   UNL     1     -12.602  -1.652  12.751  0.00  0.00    +0.000 OA
ATOM     22  C   UNL     1     -12.970  -1.375  11.403  0.00  0.00    +0.000 C 
ENDBRANCH  20  22
ENDBRANCH  19  20
ENDBRANCH  18  19
ENDBRANCH  17  18
ENDBRANCH  16  17
ENDBRANCH  15  16
ENDBRANCH  14  15
ENDBRANCH  13  14
ENDBRANCH  12  13
ENDBRANCH  11  12
ENDBRANCH  10  11
ENDBRANCH   9  10
ENDBRANCH   8   9
ENDBRANCH   7   8
ENDBRANCH   6   7
ENDBRANCH   5   6
ENDBRANCH   4   5
ENDBRANCH   3   4
ENDBRANCH   2   3
ENDBRANCH   1   2
BRANCH   1  23
ATOM     23  C   UNL     1      -8.626   4.108  14.444  0.00  0.00    +0.000 C 
BRANCH  23  24
ATOM     24  C   UNL     1      -9.961   4.816  14.313  0.00  0.00    +0.000 C 
BRANCH  24  25
ATOM     25  O   UNL     1      -9.725   6.170  13.853  0.00  0.00    +0.000 OA
BRANCH  25  26
ATOM     26  C   UNL     1     -10.343   7.194  14.674  0.00  0.00    +0.000 C 
BRANCH  26  27
ATOM     27  C   UNL     1      -9.410   7.544  15.851  0.00  0.00    +0.000 C 
BRANCH  27  28
ATOM     28  O   UNL     1     -10.110   7.374  17.094  0.00  0.00    +0.000 OA
BRANCH  28  32
ATOM     29  C   UNL     1      -8.862   4.138  19.416  0.00  0.00    +0.000 A 
ATOM     30  C   UNL     1      -9.892   4.944  19.820  0.00  0.00    +0.000 A 
ATOM     31  C   UNL     1     -10.286   6.012  19.045  0.00  0.00    +0.000 A 
ATOM     32  C   UNL     1      -9.658   6.272  17.830  0.00  0.00    +0.000 A 
ATOM     33  C   UNL     1      -8.624   5.487  17.474  0.00  0.00    +0.000 A 
ATOM     34  C   UNL     1      -8.222   4.420  18.251  0.00  0.00    +0.000 A 
BRANCH  29  35
ATOM     35  C   UNL     1      -8.450   2.977  20.276  0.00  0.00    +0.000 C 
BRANCH  35  36
ATOM     36  C   UNL     1      -6.963   3.054  20.593  0.00  0.00    +0.000 C 
BRANCH  36  37
ATOM     37  C   UNL     1      -6.744   3.132  22.103  0.00  0.00    +0.000 C 
BRANCH  37  38
ATOM     38  C   UNL     1      -7.498   4.270  22.777  0.00  0.00    +0.000 C 
BRANCH  38  39
ATOM     39  C   UNL     1      -6.523   5.161  23.588  0.00  0.00    +0.000 C 
BRANCH  39  40
ATOM     40  C   UNL     1      -5.080   4.852  23.201  0.00  0.00    +0.000 C 
BRANCH  40  41
ATOM     41  C   UNL     1      -4.232   4.580  24.425  0.00  0.00    +0.000 C 
BRANCH  41  43
ATOM     42  C   UNL     1      -2.884   3.722  22.500  0.00  0.00    +0.000 C 
ATOM     43  C   UNL     1      -2.853   4.098  23.974  0.00  0.00    +0.000 C 
ENDBRANCH  41  43
ENDBRANCH  40  41
ENDBRANCH  39  40
ENDBRANCH  38  39
ENDBRANCH  37  38
ENDBRANCH  36  37
ENDBRANCH  35  36
ENDBRANCH  29  35
ENDBRANCH  28  32
ENDBRANCH  27  28
ENDBRANCH  26  27
ENDBRANCH  25  26
ENDBRANCH  24  25
ENDBRANCH  23  24
ENDBRANCH   1  23
TORSDOF 35
BEGIN_RES LEU A  10
REMARK  2 active torsions:
REMARK  status: ('A' for Active; 'I' for Inactive)
REMARK    1  A    between atoms: CA   and  CB  
REMARK    2  A    between atoms: CB   and  CG  
ROOT
ATOM      1  CA  LEU A  10     -10.775  -4.871   5.898  1.00 25.14     0.177 C 
ENDROOT
BRANCH   1   2
ATOM      2  CB  LEU A  10     -12.191  -4.387   6.226  1.00 17.87     0.038 C 
BRANCH   2   3
ATOM      3  CG  LEU A  10     -12.374  -2.870   6.153  1.00 24.95    -0.020 C 
ATOM      4  CD2 LEU A  10     -13.637  -2.498   6.854  1.00 26.38     0.009 C 
ATOM      5  CD1 LEU A  10     -12.403  -2.394   4.711  1.00 28.12     0.009 C 
ENDBRANCH   2   3
ENDBRANCH   1   2
END_RES LEU A  10
BEGIN_RES CYS A  12
REMARK  2 active torsions:
REMARK  status: ('A' for Active; 'I' for Inactive)
REMARK    3  A    between atoms: CA   and  CB  
REMARK    4  A    between atoms: CB   and  SG  
ROOT
ATOM      6  CA  CYS A  12      -8.555   0.470   8.750  1.00 23.16     0.185 C 
ENDROOT
BRANCH   6   7
ATOM      7  CB  CYS A  12      -9.828   0.763   9.555  1.00 20.43     0.105 C 
BRANCH   7   8
ATOM      8  SG  CYS A  12     -11.381   0.808   8.608  1.00 24.64    -0.180 SA
ATOM      9  H04 CYS A  12     -11.107   0.990   7.309  1.00 24.64     0.101 HD
ENDBRANCH   7   8
ENDBRANCH   6   7
END_RES CYS A  12
BEGIN_RES GLN A  14
REMARK  3 active torsions:
REMARK  status: ('A' for Active; 'I' for Inactive)
REMARK    5  A    between atoms: CA   and  CB  
REMARK    6  A    between atoms: CB   and  CG  
REMARK    7  A    between atoms: CG   and  CD  
REMARK       I    between atoms: CD   and  NE2 
ROOT
ATOM     10  CA  GLN A  14      -4.645   5.402  11.377  1.00 10.43     0.177 C 
ENDROOT
BRANCH  10  11
ATOM     11  CB  GLN A  14      -5.541   5.549  12.608  1.00 14.45     0.044 C 
BRANCH  11  12
ATOM     12  CG  GLN A  14      -6.603   6.616  12.474  1.00 13.74     0.105 C 
BRANCH  12  13
ATOM     13  CD  GLN A  14      -6.126   7.968  12.949  1.00 16.29     0.215 C 
ATOM     14  NE2 GLN A  14      -5.834   8.847  12.016  1.00  8.57    -0.370 N 
ATOM     15  H06 GLN A  14      -5.511   9.769  12.275  1.00  8.57     0.159 HD
ATOM     16  H07 GLN A  14      -5.932   8.601  11.042  1.00  8.57     0.159 HD
ATOM     17  OE1 GLN A  14      -6.026   8.217  14.140  1.00 23.55    -0.274 OA
ENDBRANCH  12  13
ENDBRANCH  11  12
ENDBRANCH  10  11
END_RES GLN A  14
BEGIN_RES SER A  16
REMARK  2 active torsions:
REMARK  status: ('A' for Active; 'I' for Inactive)
REMARK    8  A    between atoms: CA   and  CB  
REMARK    9  A    between atoms: CB   and  OG  
ROOT
ATOM     18  CA  SER A  16      -1.305  10.019  14.282  1.00  2.34     0.200 C 
ENDROOT
BRANCH  18  19
ATOM     19  CB  SER A  16      -2.242   9.935  15.479  1.00  3.12     0.199 C 
BRANCH  19  20
ATOM     20  OG  SER A  16      -1.988   8.755  16.222  1.00  1.00    -0.398 OA
ATOM     21  H04 SER A  16      -2.351   7.999  15.755  1.00  1.00     0.209 HD
ENDBRANCH  19  20
ENDBRANCH  18  19
END_RES SER A  16
BEGIN_RES LEU A  32
REMARK  2 active torsions:
REMARK  status: ('A' for Active; 'I' for Inactive)
REMARK   10  A    between atoms: CA   and  CB  
REMARK   11  A    between atoms: CB   and  CG  
ROOT
ATOM     22  CA  LEU A  32     -10.272  -4.106   1.587  1.00 16.16     0.177 C 
ENDROOT
BRANCH  22  23
ATOM     23  CB  LEU A  32     -11.613  -3.858   0.880  1.00 12.35     0.038 C 
BRANCH  23  24
ATOM     24  CG  LEU A  32     -12.582  -5.045   1.054  1.00  9.77    -0.020 C 
ATOM     25  CD1 LEU A  32     -13.038  -5.145   2.490  1.00  4.35     0.009 C 
ATOM     26  CD2 LEU A  32     -13.778  -4.899   0.150  1.00 10.60     0.009 C 
ENDBRANCH  23  24
ENDBRANCH  22  23
END_RES LEU A  32
BEGIN_RES HIS A  38
REMARK  2 active torsions:
REMARK  status: ('A' for Active; 'I' for Inactive)
REMARK   12  A    between atoms: CA   and  CB  
REMARK   13  A    between atoms: CB   and  CG  
ROOT
ATOM     27  CA  HIS A  38     -10.959   4.941   1.621  1.00 16.94     0.182 C 
ENDROOT
BRANCH  27  28
ATOM     28  CB  HIS A  38     -11.810   4.840   2.881  1.00 15.47     0.095 C 
BRANCH  28  29
ATOM     29  CG  HIS A  38     -12.985   3.926   2.744  1.00 18.62     0.053 A 
ATOM     30  CD2 HIS A  38     -14.151   4.073   2.071  1.00 15.06     0.116 A 
ATOM     31  NE2 HIS A  38     -14.868   2.919   2.253  1.00 18.12    -0.359 N 
ATOM     32  CE1 HIS A  38     -14.171   2.094   3.011  1.00 14.78     0.207 A 
ATOM     33  H06 HIS A  38     -15.784   2.731   1.869  1.00 18.12     0.166 HD
ATOM     34  ND1 HIS A  38     -13.031   2.677   3.322  1.00 16.58    -0.247 NA
ENDBRANCH  28  29
ENDBRANCH  27  28
END_RES HIS A  38
BEGIN_RES TRP A  63
REMARK  2 active torsions:
REMARK  status: ('A' for Active; 'I' for Inactive)
REMARK   14  A    between atoms: CA   and  CB  
REMARK   15  A    between atoms: CB   and  CG  
ROOT
ATOM     35  CA  TRP A  63     -22.437   6.257   6.543  1.00 27.04     0.181 C 
ENDROOT
BRANCH  35  36
ATOM     36  CB  TRP A  63     -22.360   6.642   5.068  1.00 31.37     0.075 C 
BRANCH  36  37
ATOM     37  CG  TRP A  63     -20.955   6.703   4.506  1.00 34.37    -0.028 A 
ATOM     38  CD2 TRP A  63     -19.912   5.734   4.671  1.00 33.79    -0.002 A 
ATOM     39  CE3 TRP A  63     -19.801   4.536   5.381  1.00 32.99     0.014 A 
ATOM     40  CE2 TRP A  63     -18.806   6.178   3.914  1.00 35.84     0.042 A 
ATOM     41  CZ3 TRP A  63     -18.609   3.829   5.315  1.00 32.93     0.001 A 
ATOM     42  CH2 TRP A  63     -17.526   4.297   4.553  1.00 39.24     0.002 A 
ATOM     43  CZ2 TRP A  63     -17.606   5.467   3.846  1.00 37.99     0.030 A 
ATOM     44  NE1 TRP A  63     -19.164   7.358   3.322  1.00 37.98    -0.365 N 
ATOM     45  H06 TRP A  63     -18.577   7.913   2.717  1.00 37.98     0.165 HD
ATOM     46  CD1 TRP A  63     -20.453   7.664   3.686  1.00 38.16     0.096 A 
ENDBRANCH  36  37
ENDBRANCH  35  36
END_RES TRP A  63
BEGIN_RES LEU A  66
REMARK  2 active torsions:
REMARK  status: ('A' for Active; 'I' for Inactive)
REMARK   16  A    between atoms: CA   and  CB  
REMARK   17  A    between atoms: CB   and  CG  
ROOT
ATOM     47  CA  LEU A  66     -20.004   6.489  11.120  1.00 10.90     0.177 C 
ENDROOT
BRANCH  47  48
ATOM     48  CB  LEU A  66     -19.626   5.453  10.069  1.00 13.57     0.038 C 
BRANCH  48  49
ATOM     49  CG  LEU A  66     -20.057   4.009  10.323  1.00  8.73    -0.020 C 
ATOM     50  CD1 LEU A  66     -19.536   3.101   9.240  1.00 14.23     0.009 C 
ATOM     51  CD2 LEU A  66     -19.518   3.578  11.663  1.00  1.92     0.009 C 
ENDBRANCH  48  49
ENDBRANCH  47  48
END_RES LEU A  66
BEGIN_RES PHE A  70
REMARK  2 active torsions:
REMARK  status: ('A' for Active; 'I' for Inactive)
REMARK   18  A    between atoms: CA   and  CB  
REMARK   19  A    between atoms: CB   and  CG  
ROOT
ATOM     52  CA  PHE A  70     -14.974   9.434  13.165  1.00  8.78     0.180 C 
ENDROOT
BRANCH  52  53
ATOM     53  CB  PHE A  70     -14.707   9.132  11.681  1.00  6.33     0.073 C 
BRANCH  53  54
ATOM     54  CG  PHE A  70     -13.956   7.847  11.457  1.00  3.42    -0.056 A 
ATOM     55  CD1 PHE A  70     -13.667   7.401  10.177  1.00 13.88     0.007 A 
ATOM     56  CE1 PHE A  70     -13.007   6.176   9.974  1.00 12.71     0.001 A 
ATOM     57  CZ  PHE A  70     -12.632   5.392  11.065  1.00  4.21     0.000 A 
ATOM     58  CE2 PHE A  70     -12.913   5.828  12.347  1.00  2.83     0.001 A 
ATOM     59  CD2 PHE A  70     -13.573   7.053  12.539  1.00  1.00     0.007 A 
ENDBRANCH  53  54
ENDBRANCH  52  53
END_RES PHE A  70
BEGIN_RES TYR A  73
REMARK  3 active torsions:
REMARK  status: ('A' for Active; 'I' for Inactive)
REMARK   20  A    between atoms: CA   and  CB  
REMARK   21  A    between atoms: CB   and  CG  
REMARK   22  A    between atoms: CZ   and  OH  
ROOT
ATOM     60  CA  TYR A  73     -13.212  10.166  17.260  1.00 12.17     0.180 C 
ENDROOT
BRANCH  60  61
ATOM     61  CB  TYR A  73     -13.301   8.846  16.517  1.00 12.84     0.073 C 
BRANCH  61  62
ATOM     62  CG  TYR A  73     -13.494   7.679  17.421  1.00 15.89    -0.056 A 
ATOM     63  CD1 TYR A  73     -13.526   6.394  16.927  1.00 16.00     0.010 A 
ATOM     64  CE1 TYR A  73     -13.737   5.302  17.768  1.00 13.55     0.037 A 
ATOM     65  CZ  TYR A  73     -13.918   5.514  19.120  1.00 18.13     0.065 A 
ATOM     66  CE2 TYR A  73     -13.889   6.788  19.639  1.00 15.89     0.037 A 
ATOM     67  CD2 TYR A  73     -13.677   7.864  18.787  1.00 21.86     0.010 A 
BRANCH  65  68
ATOM     68  OH  TYR A  73     -14.122   4.453  19.968  1.00 12.12    -0.361 OA
ATOM     69  H08 TYR A  73     -15.059   4.376  20.165  1.00 12.12     0.217 HD
ENDBRANCH  65  68
ENDBRANCH  61  62
ENDBRANCH  60  61
END_RES TYR A  73
BEGIN_RES PHE A  77
REMARK  2 active torsions:
REMARK  status: ('A' for Active; 'I' for Inactive)
REMARK   23  A    between atoms: CA   and  CB  
REMARK   24  A    between atoms: CB   and  CG  
ROOT
ATOM     70  CA  PHE A  77      -8.400  10.581  20.110  1.00 17.17     0.180 C 
ENDROOT
BRANCH  70  71
ATOM     71  CB  PHE A  77      -8.228   9.750  18.851  1.00 10.44     0.073 C 
BRANCH  71  72
ATOM     72  CG  PHE A  77      -7.242   8.634  18.996  1.00  6.07    -0.056 A 
ATOM     73  CD2 PHE A  77      -6.341   8.362  17.992  1.00  9.61     0.007 A 
ATOM     74  CE2 PHE A  77      -5.420   7.328  18.118  1.00  1.00     0.001 A 
ATOM     75  CZ  PHE A  77      -5.401   6.557  19.268  1.00  1.92     0.000 A 
ATOM     76  CE1 PHE A  77      -6.294   6.817  20.282  1.00  9.25     0.001 A 
ATOM     77  CD1 PHE A  77      -7.213   7.856  20.142  1.00  9.63     0.007 A 
ENDBRANCH  71  72
ENDBRANCH  70  71
END_RES PHE A  77
BEGIN_RES LEU A  96
REMARK  2 active torsions:
REMARK  status: ('A' for Active; 'I' for Inactive)
REMARK   25  A    between atoms: CA   and  CB  
REMARK   26  A    between atoms: CB   and  CG  
ROOT
ATOM     78  CA  LEU A  96       0.717   6.481  17.359  1.00 16.08     0.177 C 
ENDROOT
BRANCH  78  79
ATOM     79  CB  LEU A  96      -0.370   7.101  18.230  1.00 18.83     0.038 C 
BRANCH  79  80
ATOM     80  CG  LEU A  96      -0.180   6.886  19.731  1.00 19.03    -0.020 C 
ATOM     81  CD1 LEU A  96       0.523   8.091  20.312  1.00 28.17     0.009 C 
ATOM     82  CD2 LEU A  96      -1.519   6.737  20.416  1.00 22.01     0.009 C 
ENDBRANCH  79  80
ENDBRANCH  78  79
END_RES LEU A  96
BEGIN_RES VAL A  98
REMARK  1 active torsions:
REMARK  status: ('A' for Active; 'I' for Inactive)
REMARK   27  A    between atoms: CA   and  CB  
ROOT
ATOM     83  CA  VAL A  98      -3.928   2.082  14.897  1.00 19.83     0.180 C 
ENDROOT
BRANCH  83  84
ATOM     84  CB  VAL A  98      -5.203   2.807  15.281  1.00 17.87     0.009 C 
ATOM     85  CG2 VAL A  98      -4.896   4.237  15.642  1.00 29.90     0.012 C 
ATOM     86  CG1 VAL A  98      -5.864   2.090  16.439  1.00 14.79     0.012 C 
ENDBRANCH  83  84
END_RES VAL A  98
BEGIN_RES ASN A 112
REMARK  2 active torsions:
REMARK  status: ('A' for Active; 'I' for Inactive)
REMARK   28  A    between atoms: CA   and  CB  
REMARK   29  A    between atoms: CB   and  CG  
REMARK       I    between atoms: CG   and  ND2 
ROOT
ATOM     87  CA  ASN A 112     -11.790  -8.793  14.069  1.00 37.70     0.185 C 
ENDROOT
BRANCH  87  88
ATOM     88  CB  ASN A 112     -12.992  -7.945  14.465  1.00 26.24     0.137 C 
BRANCH  88  89
ATOM     89  CG  ASN A 112     -13.824  -8.571  15.562  1.00 21.77     0.217 C 
ATOM     90  ND2 ASN A 112     -14.978  -9.120  15.184  1.00  9.31    -0.370 N 
ATOM     91  H04 ASN A 112     -15.580  -9.553  15.870  1.00  9.31     0.159 HD
ATOM     92  H05 ASN A 112     -15.251  -9.103  14.211  1.00  9.31     0.159 HD
ATOM     93  OD1 ASN A 112     -13.439  -8.560  16.737  1.00 21.61    -0.274 OA
ENDBRANCH  88  89
ENDBRANCH  87  88
END_RES ASN A 112
BEGIN_RES PHE A 114
REMARK  2 active torsions:
REMARK  status: ('A' for Active; 'I' for Inactive)
REMARK   30  A    between atoms: CA   and  CB  
REMARK   31  A    between atoms: CB   and  CG  
ROOT
ATOM     94  CA  PHE A 114      -7.754  -3.619  17.012  1.00 26.06     0.180 C 
ENDROOT
BRANCH  94  95
ATOM     95  CB  PHE A 114      -8.890  -3.080  17.867  1.00 19.95     0.073 C 
BRANCH  95  96
ATOM     96  CG  PHE A 114      -9.172  -1.631  17.632  1.00 17.65    -0.056 A 
ATOM     97  CD1 PHE A 114     -10.478  -1.175  17.480  1.00 13.01     0.007 A 
ATOM     98  CE1 PHE A 114     -10.739   0.166  17.233  1.00  6.74     0.001 A 
ATOM     99  CZ  PHE A 114      -9.689   1.075  17.138  1.00  6.27     0.000 A 
ATOM    100  CE2 PHE A 114      -8.385   0.633  17.289  1.00 17.36     0.001 A 
ATOM    101  CD2 PHE A 114      -8.129  -0.720  17.536  1.00 18.39     0.007 A 
ENDBRANCH  95  96
ENDBRANCH  94  95
END_RES PHE A 114
BEGIN_RES VAL A 116
REMARK  1 active torsions:
REMARK  status: ('A' for Active; 'I' for Inactive)
REMARK   32  A    between atoms: CA   and  CB  
ROOT
ATOM    102  CA  VAL A 116      -2.467   0.283  18.565  1.00 13.48     0.180 C 
ENDROOT
BRANCH 102 103
ATOM    103  CB  VAL A 116      -3.101   1.238  19.599  1.00 20.86     0.009 C 
ATOM    104  CG1 VAL A 116      -3.320   2.612  18.960  1.00 25.01     0.012 C 
ATOM    105  CG2 VAL A 116      -4.389   0.665  20.142  1.00 25.34     0.012 C 
ENDBRANCH 102 103
END_RES VAL A 116
BEGIN_RES ILE A 123
REMARK  2 active torsions:
REMARK  status: ('A' for Active; 'I' for Inactive)
REMARK   33  A    between atoms: CA   and  CB  
REMARK   34  A    between atoms: CB   and  CG1 
ROOT
ATOM    106  CA  ILE A 123       1.557  -1.626  23.222  1.00 15.07     0.180 C 
ENDROOT
BRANCH 106 107
ATOM    107  CB  ILE A 123       1.697  -0.112  23.461  1.00 14.41     0.013 C 
ATOM    108  CG2 ILE A 123       3.102   0.208  23.941  1.00 18.35     0.012 C 
BRANCH 107 109
ATOM    109  CG1 ILE A 123       1.389   0.658  22.179  1.00 15.23     0.002 C 
ATOM    110  CD1 ILE A 123       0.257   1.646  22.323  1.00 14.67     0.005 C 
ENDBRANCH 107 109
ENDBRANCH 106 107
END_RES ILE A 123
BEGIN_RES LEU A 124
REMARK  2 active torsions:
REMARK  status: ('A' for Active; 'I' for Inactive)
REMARK   35  A    between atoms: CA   and  CB  
REMARK   36  A    between atoms: CB   and  CG  
ROOT
ATOM    111  CA  LEU A 124      -2.057  -2.686  23.524  1.00 11.86     0.177 C 
ENDROOT
BRANCH 111 112
ATOM    112  CB  LEU A 124      -2.698  -1.652  24.429  1.00 14.60     0.038 C 
BRANCH 112 113
ATOM    113  CG  LEU A 124      -2.593  -0.247  23.856  1.00 16.19    -0.020 C 
ATOM    114  CD1 LEU A 124      -4.008   0.275  23.543  1.00 22.07     0.009 C 
ATOM    115  CD2 LEU A 124      -1.869   0.643  24.835  1.00  9.12     0.009 C 
ENDBRANCH 112 113
ENDBRANCH 111 112
END_RES LEU A 124
BEGIN_RES PHE A 126
REMARK  2 active torsions:
REMARK  status: ('A' for Active; 'I' for Inactive)
REMARK   37  A    between atoms: CA   and  CB  
REMARK   38  A    between atoms: CB   and  CG  
ROOT
ATOM    116  CA  PHE A 126      -8.784  -4.792  22.233  1.00 23.15     0.180 C 
ENDROOT
BRANCH 116 117
ATOM    117  CB  PHE A 126      -9.823  -4.011  21.461  1.00 20.65     0.073 C 
BRANCH 117 118
ATOM    118  CG  PHE A 126     -10.939  -3.525  22.300  1.00 23.65    -0.056 A 
ATOM    119  CD2 PHE A 126     -12.206  -4.067  22.173  1.00 36.63     0.007 A 
ATOM    120  CE2 PHE A 126     -13.263  -3.607  22.971  1.00 36.27     0.001 A 
ATOM    121  CZ  PHE A 126     -13.042  -2.598  23.896  1.00 18.06     0.000 A 
ATOM    122  CE1 PHE A 126     -11.779  -2.056  24.027  1.00  5.50     0.001 A 
ATOM    123  CD1 PHE A 126     -10.732  -2.522  23.232  1.00 15.29     0.007 A 
ENDBRANCH 117 118
ENDBRANCH 116 117
END_RES PHE A 126
BEGIN_RES TRP A 131
REMARK  2 active torsions:
REMARK  status: ('A' for Active; 'I' for Inactive)
REMARK   39  A    between atoms: CA   and  CB  
REMARK   40  A    between atoms: CB   and  CG  
ROOT
ATOM    124  CA  TRP A 131      -8.096  -3.335  26.542  1.00 14.52     0.181 C 
ENDROOT
BRANCH 124 125
ATOM    125  CB  TRP A 131      -7.651  -1.877  26.607  1.00 13.06     0.075 C 
BRANCH 125 126
ATOM    126  CG  TRP A 131      -7.964  -1.076  25.363  1.00 16.97    -0.028 A 
ATOM    127  CD2 TRP A 131      -9.016  -0.119  25.207  1.00 11.34    -0.002 A 
ATOM    128  CE2 TRP A 131      -8.936   0.388  23.896  1.00  5.87     0.042 A 
ATOM    129  CE3 TRP A 131     -10.021   0.357  26.056  1.00  3.80     0.014 A 
ATOM    130  CZ2 TRP A 131      -9.823   1.351  23.412  1.00  1.35     0.030 A 
ATOM    131  NE1 TRP A 131      -7.885  -0.233  23.278  1.00 13.90    -0.365 N 
ATOM    132  CH2 TRP A 131     -10.798   1.802  24.267  1.00  1.00     0.002 A 
ATOM    133  CZ3 TRP A 131     -10.903   1.311  25.582  1.00  1.00     0.001 A 
ATOM    134  CD1 TRP A 131      -7.305  -1.110  24.164  1.00 17.22     0.096 A 
ATOM    135  H07 TRP A 131      -7.584  -0.073  22.327  1.00 13.90     0.165 HD
ENDBRANCH 125 126
ENDBRANCH 124 125
END_RES TRP A 131
BEGIN_RES LEU A 148
REMARK  2 active torsions:
REMARK  status: ('A' for Active; 'I' for Inactive)
REMARK   41  A    between atoms: CA   and  CB  
REMARK   42  A    between atoms: CB   and  CG  
ROOT
ATOM    136  CA  LEU A 148      -9.018   3.259  29.295  1.00 16.99     0.177 C 
ENDROOT
BRANCH 136 137
ATOM    137  CB  LEU A 148      -8.166   2.574  28.236  1.00  6.39     0.038 C 
BRANCH 137 138
ATOM    138  CG  LEU A 148      -7.554   3.361  27.095  1.00  1.00    -0.020 C 
ATOM    139  CD2 LEU A 148      -8.627   4.051  26.304  1.00  1.00     0.009 C 
ATOM    140  CD1 LEU A 148      -6.779   2.398  26.215  1.00  2.71     0.009 C 
ENDBRANCH 137 138
ENDBRANCH 136 137
END_RES LEU A 148
BEGIN_RES THR A 154
REMARK  2 active torsions:
REMARK  status: ('A' for Active; 'I' for Inactive)
REMARK   43  A    between atoms: CA   and  CB  
REMARK   44  A    between atoms: CB   and  OG1 
ROOT
ATOM    141  CA  THR A 154     -15.990   3.959  24.426  1.00 20.45     0.205 C 
ENDROOT
BRANCH 141 142
ATOM    142  CB  THR A 154     -14.777   4.829  24.694  1.00 16.79     0.146 C 
ATOM    143  CG2 THR A 154     -13.553   3.964  24.926  1.00 20.24     0.042 C 
BRANCH 142 144
ATOM    144  OG1 THR A 154     -14.544   5.665  23.553  1.00 18.84    -0.393 OA
ATOM    145  H06 THR A 154     -14.451   5.119  22.770  1.00 18.84     0.210 HD
ENDBRANCH 142 144
ENDBRANCH 141 142
END_RES THR A 154
BEGIN_RES VAL A 158
REMARK  1 active torsions:
REMARK  status: ('A' for Active; 'I' for Inactive)
REMARK   45  A    between atoms: CA   and  CB  
ROOT
ATOM    146  CA  VAL A 158     -15.487  -0.189  19.892  1.00 15.49     0.180 C 
ENDROOT
BRANCH 146 147
ATOM    147  CB  VAL A 158     -14.291  -0.273  20.822  1.00  6.52     0.009 C 
ATOM    148  CG1 VAL A 158     -13.246  -1.216  20.272  1.00  1.00     0.012 C 
ATOM    149  CG2 VAL A 158     -13.723   1.101  20.999  1.00  5.99     0.012 C 
ENDBRANCH 146 147
END_RES VAL A 158
BEGIN_RES LEU A 161
REMARK  2 active torsions:
REMARK  status: ('A' for Active; 'I' for Inactive)
REMARK   46  A    between atoms: CA   and  CB  
REMARK   47  A    between atoms: CB   and  CG  
ROOT
ATOM    150  CA  LEU A 161     -18.031  -1.858  15.935  1.00 13.31     0.177 C 
ENDROOT
BRANCH 150 151
ATOM    151  CB  LEU A 161     -17.046  -0.706  16.001  1.00 14.13     0.038 C 
BRANCH 151 152
ATOM    152  CG  LEU A 161     -17.418   0.545  15.215  1.00 19.39    -0.020 C 
ATOM    153  CD2 LEU A 161     -16.675   1.742  15.758  1.00 27.75     0.009 C 
ATOM    154  CD1 LEU A 161     -18.902   0.766  15.325  1.00 18.59     0.009 C 
ENDBRANCH 151 152
ENDBRANCH 150 151
END_RES LEU A 161
BEGIN_RES GLN A 168
REMARK  3 active torsions:
REMARK  status: ('A' for Active; 'I' for Inactive)
REMARK   48  A    between atoms: CA   and  CB  
REMARK   49  A    between atoms: CB   and  CG  
REMARK   50  A    between atoms: CG   and  CD  
REMARK       I    between atoms: CD   and  NE2 
ROOT
ATOM    155  CA  GLN A 168     -22.035  -6.020   8.155  1.00 30.94     0.177 C 
ENDROOT
BRANCH 155 156
ATOM    156  CB  GLN A 168     -23.054  -5.218   8.946  1.00 41.76     0.044 C 
BRANCH 156 157
ATOM    157  CG  GLN A 168     -24.453  -5.769   8.900  1.00 61.20     0.105 C 
BRANCH 157 158
ATOM    158  CD  GLN A 168     -25.172  -5.380   7.623  1.00 75.49     0.215 C 
ATOM    159  NE2 GLN A 168     -25.068  -4.102   7.252  1.00 85.00    -0.370 N 
ATOM    160  H06 GLN A 168     -25.526  -3.781   6.412  1.00 85.00     0.159 HD
ATOM    161  H07 GLN A 168     -24.529  -3.457   7.813  1.00 85.00     0.159 HD
ATOM    162  OE1 GLN A 168     -25.822  -6.214   6.976  1.00 73.64    -0.274 OA
ENDBRANCH 157 158
ENDBRANCH 156 157
ENDBRANCH 155 156
END_RES GLN A 168
ENDMDL
MODEL 8
REMARK VINA RESULT:      -7.8      1.357      3.379
REMARK  Name = human_CD1d_NP40_pred.rank_0
REMARK  35 active torsions:
REMARK  status: ('A' for Active; 'I' for Inactive)
REMARK    1  A    between atoms: O_2  and  C_23
REMARK    2  A    between atoms: O_2  and  C_24
REMARK    3  A    between atoms: C_3  and  C_5
REMARK    4  A    between atoms: O_4  and  C_25
REMARK    5  A    between atoms: O_4  and  C_26
REMARK    6  A    between atoms: C_5  and  C_7
REMARK    7  A    between atoms: O_6  and  C_27
REMARK    8  A    between atoms: O_6  and  C_28
REMARK    9  A    between atoms: C_7  and  C_9
REMARK   10  A    between atoms: O_8  and  C_29
REMARK   11  A    between atoms: O_8  and  C_30
REMARK   12  A    between atoms: C_9  and  C_11
REMARK   13  A    between atoms: O_10  and  C_31
REMARK   14  A    between atoms: O_10  and  C_32
REMARK   15  A    between atoms: C_11  and  C_13
REMARK   16  A    between atoms: O_12  and  C_33
REMARK   17  A    between atoms: O_12  and  C_34
REMARK   18  A    between atoms: C_13  and  C_15
REMARK   19  A    between atoms: O_14  and  C_35
REMARK   20  A    between atoms: O_14  and  C_36
REMARK   21  A    between atoms: C_15  and  C_17
REMARK   22  A    between atoms: O_16  and  C_37
REMARK   23  A    between atoms: O_16  and  C_38
REMARK   24  A    between atoms: C_17  and  C_19
REMARK   25  A    between atoms: O_18  and  C_39
REMARK   26  A    between atoms: O_18  and  C_40
REMARK   27  A    between atoms: C_24  and  C_25
REMARK   28  A    between atoms: C_26  and  C_27
REMARK   29  A    between atoms: C_28  and  C_29
REMARK   30  A    between atoms: C_30  and  C_31
REMARK   31  A    between atoms: C_32  and  C_33
REMARK   32  A    between atoms: C_34  and  C_35
REMARK   33  A    between atoms: C_36  and  C_37
REMARK   34  A    between atoms: C_38  and  C_39
REMARK   35  A    between atoms: C_40  and  C_41
REMARK                            x       y       z     vdW  Elec       q    Type
REMARK                         _______ _______ _______ _____ _____    ______ ____
ROOT
ATOM      1  O   UNL     1     -12.956   2.379  13.761  0.00  0.00    +0.000 OA
ENDROOT
BRANCH   1   2
ATOM      2  C   UNL     1     -14.342   2.472  13.370  0.00  0.00    +0.000 C 
BRANCH   2   3
ATOM      3  C   UNL     1     -14.496   2.090  11.888  0.00  0.00    +0.000 C 
BRANCH   3   4
ATOM      4  O   UNL     1     -15.821   2.457  11.425  0.00  0.00    +0.000 OA
BRANCH   4   5
ATOM      5  C   UNL     1     -15.744   3.365  10.306  0.00  0.00    +0.000 C 
BRANCH   5   6
ATOM      6  C   UNL     1     -16.147   4.743  10.750  0.00  0.00    +0.000 C 
BRANCH   6   7
ATOM      7  O   UNL     1     -16.385   5.569   9.561  0.00  0.00    +0.000 OA
BRANCH   7   8
ATOM      8  C   UNL     1     -16.222   4.889   8.319  0.00  0.00    +0.000 C 
BRANCH   8   9
ATOM      9  C   UNL     1     -15.497   5.785   7.305  0.00  0.00    +0.000 C 
BRANCH   9  10
ATOM     10  O   UNL     1     -14.757   4.943   6.358  0.00  0.00    +0.000 OA
BRANCH  10  11
ATOM     11  C   UNL     1     -13.656   4.224   7.013  0.00  0.00    +0.000 C 
BRANCH  11  12
ATOM     12  C   UNL     1     -13.653   2.752   6.561  0.00  0.00    +0.000 C 
BRANCH  12  13
ATOM     13  O   UNL     1     -14.242   1.913   7.613  0.00  0.00    +0.000 OA
BRANCH  13  14
ATOM     14  C   UNL     1     -13.772   0.541   7.545  0.00  0.00    +0.000 C 
BRANCH  14  15
ATOM     15  C   UNL     1     -14.354  -0.276   8.749  0.00  0.00    +0.000 C 
BRANCH  15  16
ATOM     16  O   UNL     1     -13.871  -1.649   8.676  0.00  0.00    +0.000 OA
BRANCH  16  17
ATOM     17  C   UNL     1     -12.603  -1.817   9.326  0.00  0.00    +0.000 C 
BRANCH  17  18
ATOM     18  C   UNL     1     -12.603  -1.118  10.687  0.00  0.00    +0.000 C 
BRANCH  18  19
ATOM     19  O   UNL     1     -13.207  -1.967  11.708  0.00  0.00    +0.000 OA
BRANCH  19  20
ATOM     20  C   UNL     1     -12.975  -1.443  13.013  0.00  0.00    +0.000 C 
BRANCH  20  22
ATOM     21  O   UNL     1     -15.359  -1.198  12.835  0.00  0.00    +0.000 OA
ATOM     22  C   UNL     1     -14.283  -1.247  13.768  0.00  0.00    +0.000 C 
ENDBRANCH  20  22
ENDBRANCH  19  20
ENDBRANCH  18  19
ENDBRANCH  17  18
ENDBRANCH  16  17
ENDBRANCH  15  16
ENDBRANCH  14  15
ENDBRANCH  13  14
ENDBRANCH  12  13
ENDBRANCH  11  12
ENDBRANCH  10  11
ENDBRANCH   9  10
ENDBRANCH   8   9
ENDBRANCH   7   8
ENDBRANCH   6   7
ENDBRANCH   5   6
ENDBRANCH   4   5
ENDBRANCH   3   4
ENDBRANCH   2   3
ENDBRANCH   1   2
BRANCH   1  23
ATOM     23  C   UNL     1     -12.085   2.152  12.619  0.00  0.00    +0.000 C 
BRANCH  23  24
ATOM     24  C   UNL     1     -10.639   2.197  13.072  0.00  0.00    +0.000 C 
BRANCH  24  25
ATOM     25  O   UNL     1     -10.062   3.462  12.662  0.00  0.00    +0.000 OA
BRANCH  25  26
ATOM     26  C   UNL     1      -8.992   3.935  13.520  0.00  0.00    +0.000 C 
BRANCH  26  27
ATOM     27  C   UNL     1      -9.446   5.215  14.253  0.00  0.00    +0.000 C 
BRANCH  27  28
ATOM     28  O   UNL     1      -8.442   5.614  15.199  0.00  0.00    +0.000 OA
BRANCH  28  32
ATOM     29  C   UNL     1      -9.827   5.562  19.137  0.00  0.00    +0.000 A 
ATOM     30  C   UNL     1     -10.199   6.553  18.269  0.00  0.00    +0.000 A 
ATOM     31  C   UNL     1      -9.726   6.559  16.975  0.00  0.00    +0.000 A 
ATOM     32  C   UNL     1      -8.884   5.545  16.527  0.00  0.00    +0.000 A 
ATOM     33  C   UNL     1      -8.504   4.604  17.411  0.00  0.00    +0.000 A 
ATOM     34  C   UNL     1      -8.970   4.598  18.709  0.00  0.00    +0.000 A 
BRANCH  29  35
ATOM     35  C   UNL     1     -10.356   5.574  20.543  0.00  0.00    +0.000 C 
BRANCH  35  36
ATOM     36  C   UNL     1     -10.648   7.001  20.986  0.00  0.00    +0.000 C 
BRANCH  36  37
ATOM     37  C   UNL     1     -10.676   7.090  22.510  0.00  0.00    +0.000 C 
BRANCH  37  38
ATOM     38  C   UNL     1      -9.819   6.040  23.205  0.00  0.00    +0.000 C 
BRANCH  38  39
ATOM     39  C   UNL     1      -8.459   6.645  23.633  0.00  0.00    +0.000 C 
BRANCH  39  40
ATOM     40  C   UNL     1      -7.375   5.572  23.615  0.00  0.00    +0.000 C 
BRANCH  40  41
ATOM     41  C   UNL     1      -7.933   4.239  23.166  0.00  0.00    +0.000 C 
BRANCH  41  43
ATOM     42  C   UNL     1      -6.840   3.124  21.210  0.00  0.00    +0.000 C 
ATOM     43  C   UNL     1      -6.777   3.346  22.714  0.00  0.00    +0.000 C 
ENDBRANCH  41  43
ENDBRANCH  40  41
ENDBRANCH  39  40
ENDBRANCH  38  39
ENDBRANCH  37  38
ENDBRANCH  36  37
ENDBRANCH  35  36
ENDBRANCH  29  35
ENDBRANCH  28  32
ENDBRANCH  27  28
ENDBRANCH  26  27
ENDBRANCH  25  26
ENDBRANCH  24  25
ENDBRANCH  23  24
ENDBRANCH   1  23
TORSDOF 35
BEGIN_RES LEU A  10
REMARK  2 active torsions:
REMARK  status: ('A' for Active; 'I' for Inactive)
REMARK    1  A    between atoms: CA   and  CB  
REMARK    2  A    between atoms: CB   and  CG  
ROOT
ATOM      1  CA  LEU A  10     -10.775  -4.871   5.898  1.00 25.14     0.177 C 
ENDROOT
BRANCH   1   2
ATOM      2  CB  LEU A  10     -12.191  -4.387   6.226  1.00 17.87     0.038 C 
BRANCH   2   3
ATOM      3  CG  LEU A  10     -12.685  -3.234   5.350  1.00 24.95    -0.020 C 
ATOM      4  CD2 LEU A  10     -11.865  -2.021   5.635  1.00 26.38     0.009 C 
ATOM      5  CD1 LEU A  10     -14.157  -2.955   5.597  1.00 28.12     0.009 C 
ENDBRANCH   2   3
ENDBRANCH   1   2
END_RES LEU A  10
BEGIN_RES CYS A  12
REMARK  2 active torsions:
REMARK  status: ('A' for Active; 'I' for Inactive)
REMARK    3  A    between atoms: CA   and  CB  
REMARK    4  A    between atoms: CB   and  SG  
ROOT
ATOM      6  CA  CYS A  12      -8.555   0.470   8.750  1.00 23.16     0.185 C 
ENDROOT
BRANCH   6   7
ATOM      7  CB  CYS A  12      -9.828   0.763   9.555  1.00 20.43     0.105 C 
BRANCH   7   8
ATOM      8  SG  CYS A  12     -10.770   2.236   9.053  1.00 24.64    -0.180 SA
ATOM      9  H04 CYS A  12      -9.976   3.313   9.102  1.00 24.64     0.101 HD
ENDBRANCH   7   8
ENDBRANCH   6   7
END_RES CYS A  12
BEGIN_RES GLN A  14
REMARK  3 active torsions:
REMARK  status: ('A' for Active; 'I' for Inactive)
REMARK    5  A    between atoms: CA   and  CB  
REMARK    6  A    between atoms: CB   and  CG  
REMARK    7  A    between atoms: CG   and  CD  
REMARK       I    between atoms: CD   and  NE2 
ROOT
ATOM     10  CA  GLN A  14      -4.645   5.402  11.377  1.00 10.43     0.177 C 
ENDROOT
BRANCH  10  11
ATOM     11  CB  GLN A  14      -5.541   5.549  12.608  1.00 14.45     0.044 C 
BRANCH  11  12
ATOM     12  CG  GLN A  14      -6.588   6.632  12.483  1.00 13.74     0.105 C 
BRANCH  12  13
ATOM     13  CD  GLN A  14      -6.156   7.929  13.126  1.00 16.29     0.215 C 
ATOM     14  NE2 GLN A  14      -6.310   8.017  14.429  1.00  8.57    -0.370 N 
ATOM     15  H06 GLN A  14      -6.037   8.860  14.914  1.00  8.57     0.159 HD
ATOM     16  H07 GLN A  14      -6.699   7.241  14.945  1.00  8.57     0.159 HD
ATOM     17  OE1 GLN A  14      -5.688   8.837  12.458  1.00 23.55    -0.274 OA
ENDBRANCH  12  13
ENDBRANCH  11  12
ENDBRANCH  10  11
END_RES GLN A  14
BEGIN_RES SER A  16
REMARK  2 active torsions:
REMARK  status: ('A' for Active; 'I' for Inactive)
REMARK    8  A    between atoms: CA   and  CB  
REMARK    9  A    between atoms: CB   and  OG  
ROOT
ATOM     18  CA  SER A  16      -1.305  10.019  14.282  1.00  2.34     0.200 C 
ENDROOT
BRANCH  18  19
ATOM     19  CB  SER A  16      -2.242   9.935  15.479  1.00  3.12     0.199 C 
BRANCH  19  20
ATOM     20  OG  SER A  16      -3.460   9.313  15.109  1.00  1.00    -0.398 OA
ATOM     21  H04 SER A  16      -4.172   9.654  15.654  1.00  1.00     0.209 HD
ENDBRANCH  19  20
ENDBRANCH  18  19
END_RES SER A  16
BEGIN_RES LEU A  32
REMARK  2 active torsions:
REMARK  status: ('A' for Active; 'I' for Inactive)
REMARK   10  A    between atoms: CA   and  CB  
REMARK   11  A    between atoms: CB   and  CG  
ROOT
ATOM     22  CA  LEU A  32     -10.272  -4.106   1.587  1.00 16.16     0.177 C 
ENDROOT
BRANCH  22  23
ATOM     23  CB  LEU A  32     -11.613  -3.858   0.880  1.00 12.35     0.038 C 
BRANCH  23  24
ATOM     24  CG  LEU A  32     -12.646  -4.956   1.206  1.00  9.77    -0.020 C 
ATOM     25  CD1 LEU A  32     -12.381  -6.189   0.375  1.00  4.35     0.009 C 
ATOM     26  CD2 LEU A  32     -12.608  -5.312   2.669  1.00 10.60     0.009 C 
ENDBRANCH  23  24
ENDBRANCH  22  23
END_RES LEU A  32
BEGIN_RES HIS A  38
REMARK  2 active torsions:
REMARK  status: ('A' for Active; 'I' for Inactive)
REMARK   12  A    between atoms: CA   and  CB  
REMARK   13  A    between atoms: CB   and  CG  
ROOT
ATOM     27  CA  HIS A  38     -10.959   4.941   1.621  1.00 16.94     0.182 C 
ENDROOT
BRANCH  27  28
ATOM     28  CB  HIS A  38     -11.810   4.840   2.881  1.00 15.47     0.095 C 
BRANCH  28  29
ATOM     29  CG  HIS A  38     -13.022   3.979   2.724  1.00 18.62     0.053 A 
ATOM     30  CD2 HIS A  38     -14.205   4.215   2.109  1.00 15.06     0.116 A 
ATOM     31  NE2 HIS A  38     -14.957   3.075   2.234  1.00 18.12    -0.359 N 
ATOM     32  CE1 HIS A  38     -14.264   2.173   2.901  1.00 14.78     0.207 A 
ATOM     33  H06 HIS A  38     -15.892   2.948   1.873  1.00 18.12     0.166 HD
ATOM     34  ND1 HIS A  38     -13.093   2.692   3.210  1.00 16.58    -0.247 NA
ENDBRANCH  28  29
ENDBRANCH  27  28
END_RES HIS A  38
BEGIN_RES TRP A  63
REMARK  2 active torsions:
REMARK  status: ('A' for Active; 'I' for Inactive)
REMARK   14  A    between atoms: CA   and  CB  
REMARK   15  A    between atoms: CB   and  CG  
ROOT
ATOM     35  CA  TRP A  63     -22.437   6.257   6.543  1.00 27.04     0.181 C 
ENDROOT
BRANCH  35  36
ATOM     36  CB  TRP A  63     -22.360   6.642   5.068  1.00 31.37     0.075 C 
BRANCH  36  37
ATOM     37  CG  TRP A  63     -20.956   6.692   4.503  1.00 34.37    -0.028 A 
ATOM     38  CD2 TRP A  63     -19.921   5.712   4.665  1.00 33.79    -0.002 A 
ATOM     39  CE3 TRP A  63     -19.819   4.512   5.372  1.00 32.99     0.014 A 
ATOM     40  CE2 TRP A  63     -18.813   6.147   3.905  1.00 35.84     0.042 A 
ATOM     41  CZ3 TRP A  63     -18.634   3.795   5.302  1.00 32.93     0.001 A 
ATOM     42  CH2 TRP A  63     -17.549   4.255   4.539  1.00 39.24     0.002 A 
ATOM     43  CZ2 TRP A  63     -17.620   5.426   3.833  1.00 37.99     0.030 A 
ATOM     44  NE1 TRP A  63     -19.162   7.331   3.316  1.00 37.98    -0.365 N 
ATOM     45  H06 TRP A  63     -18.571   7.883   2.710  1.00 37.98     0.165 HD
ATOM     46  CD1 TRP A  63     -20.448   7.649   3.683  1.00 38.16     0.096 A 
ENDBRANCH  36  37
ENDBRANCH  35  36
END_RES TRP A  63
BEGIN_RES LEU A  66
REMARK  2 active torsions:
REMARK  status: ('A' for Active; 'I' for Inactive)
REMARK   16  A    between atoms: CA   and  CB  
REMARK   17  A    between atoms: CB   and  CG  
ROOT
ATOM     47  CA  LEU A  66     -20.004   6.489  11.120  1.00 10.90     0.177 C 
ENDROOT
BRANCH  47  48
ATOM     48  CB  LEU A  66     -19.626   5.453  10.069  1.00 13.57     0.038 C 
BRANCH  48  49
ATOM     49  CG  LEU A  66     -19.978   3.996  10.365  1.00  8.73    -0.020 C 
ATOM     50  CD1 LEU A  66     -19.353   3.080   9.345  1.00 14.23     0.009 C 
ATOM     51  CD2 LEU A  66     -19.475   3.653  11.744  1.00  1.92     0.009 C 
ENDBRANCH  48  49
ENDBRANCH  47  48
END_RES LEU A  66
BEGIN_RES PHE A  70
REMARK  2 active torsions:
REMARK  status: ('A' for Active; 'I' for Inactive)
REMARK   18  A    between atoms: CA   and  CB  
REMARK   19  A    between atoms: CB   and  CG  
ROOT
ATOM     52  CA  PHE A  70     -14.974   9.434  13.165  1.00  8.78     0.180 C 
ENDROOT
BRANCH  52  53
ATOM     53  CB  PHE A  70     -14.707   9.132  11.681  1.00  6.33     0.073 C 
BRANCH  53  54
ATOM     54  CG  PHE A  70     -13.914   7.872  11.460  1.00  3.42    -0.056 A 
ATOM     55  CD1 PHE A  70     -13.609   7.435  10.180  1.00 13.88     0.007 A 
ATOM     56  CE1 PHE A  70     -12.908   6.232   9.980  1.00 12.71     0.001 A 
ATOM     57  CZ  PHE A  70     -12.510   5.462  11.072  1.00  4.21     0.000 A 
ATOM     58  CE2 PHE A  70     -12.806   5.889  12.353  1.00  2.83     0.001 A 
ATOM     59  CD2 PHE A  70     -13.507   7.092  12.543  1.00  1.00     0.007 A 
ENDBRANCH  53  54
ENDBRANCH  52  53
END_RES PHE A  70
BEGIN_RES TYR A  73
REMARK  3 active torsions:
REMARK  status: ('A' for Active; 'I' for Inactive)
REMARK   20  A    between atoms: CA   and  CB  
REMARK   21  A    between atoms: CB   and  CG  
REMARK   22  A    between atoms: CZ   and  OH  
ROOT
ATOM     60  CA  TYR A  73     -13.212  10.166  17.260  1.00 12.17     0.180 C 
ENDROOT
BRANCH  60  61
ATOM     61  CB  TYR A  73     -13.301   8.846  16.517  1.00 12.84     0.073 C 
BRANCH  61  62
ATOM     62  CG  TYR A  73     -13.534   7.684  17.418  1.00 15.89    -0.056 A 
ATOM     63  CD1 TYR A  73     -13.704   7.858  18.774  1.00 16.00     0.010 A 
ATOM     64  CE1 TYR A  73     -13.892   6.768  19.623  1.00 13.55     0.037 A 
ATOM     65  CZ  TYR A  73     -13.905   5.493  19.095  1.00 18.13     0.065 A 
ATOM     66  CE2 TYR A  73     -13.738   5.292  17.745  1.00 15.89     0.037 A 
ATOM     67  CD2 TYR A  73     -13.554   6.389  16.913  1.00 21.86     0.010 A 
BRANCH  65  68
ATOM     68  OH  TYR A  73     -14.094   4.406  19.913  1.00 12.12    -0.361 OA
ATOM     69  H08 TYR A  73     -14.957   4.021  19.741  1.00 12.12     0.217 HD
ENDBRANCH  65  68
ENDBRANCH  61  62
ENDBRANCH  60  61
END_RES TYR A  73
BEGIN_RES PHE A  77
REMARK  2 active torsions:
REMARK  status: ('A' for Active; 'I' for Inactive)
REMARK   23  A    between atoms: CA   and  CB  
REMARK   24  A    between atoms: CB   and  CG  
ROOT
ATOM     70  CA  PHE A  77      -8.400  10.581  20.110  1.00 17.17     0.180 C 
ENDROOT
BRANCH  70  71
ATOM     71  CB  PHE A  77      -8.228   9.750  18.851  1.00 10.44     0.073 C 
BRANCH  71  72
ATOM     72  CG  PHE A  77      -7.346   8.555  19.033  1.00  6.07    -0.056 A 
ATOM     73  CD2 PHE A  77      -6.577   8.088  17.992  1.00  9.61     0.007 A 
ATOM     74  CE2 PHE A  77      -5.753   6.980  18.152  1.00  1.00     0.001 A 
ATOM     75  CZ  PHE A  77      -5.697   6.332  19.375  1.00  1.92     0.000 A 
ATOM     76  CE1 PHE A  77      -6.458   6.788  20.427  1.00  9.25     0.001 A 
ATOM     77  CD1 PHE A  77      -7.281   7.900  20.252  1.00  9.63     0.007 A 
ENDBRANCH  71  72
ENDBRANCH  70  71
END_RES PHE A  77
BEGIN_RES LEU A  96
REMARK  2 active torsions:
REMARK  status: ('A' for Active; 'I' for Inactive)
REMARK   25  A    between atoms: CA   and  CB  
REMARK   26  A    between atoms: CB   and  CG  
ROOT
ATOM     78  CA  LEU A  96       0.717   6.481  17.359  1.00 16.08     0.177 C 
ENDROOT
BRANCH  78  79
ATOM     79  CB  LEU A  96      -0.370   7.101  18.230  1.00 18.83     0.038 C 
BRANCH  79  80
ATOM     80  CG  LEU A  96      -0.184   6.879  19.731  1.00 19.03    -0.020 C 
ATOM     81  CD1 LEU A  96       0.514   8.083  20.319  1.00 28.17     0.009 C 
ATOM     82  CD2 LEU A  96      -1.525   6.724  20.411  1.00 22.01     0.009 C 
ENDBRANCH  79  80
ENDBRANCH  78  79
END_RES LEU A  96
BEGIN_RES VAL A  98
REMARK  1 active torsions:
REMARK  status: ('A' for Active; 'I' for Inactive)
REMARK   27  A    between atoms: CA   and  CB  
ROOT
ATOM     83  CA  VAL A  98      -3.928   2.082  14.897  1.00 19.83     0.180 C 
ENDROOT
BRANCH  83  84
ATOM     84  CB  VAL A  98      -5.203   2.807  15.281  1.00 17.87     0.009 C 
ATOM     85  CG2 VAL A  98      -4.905   4.253  15.580  1.00 29.90     0.012 C 
ATOM     86  CG1 VAL A  98      -5.830   2.128  16.480  1.00 14.79     0.012 C 
ENDBRANCH  83  84
END_RES VAL A  98
BEGIN_RES ASN A 112
REMARK  2 active torsions:
REMARK  status: ('A' for Active; 'I' for Inactive)
REMARK   28  A    between atoms: CA   and  CB  
REMARK   29  A    between atoms: CB   and  CG  
REMARK       I    between atoms: CG   and  ND2 
ROOT
ATOM     87  CA  ASN A 112     -11.790  -8.793  14.069  1.00 37.70     0.185 C 
ENDROOT
BRANCH  87  88
ATOM     88  CB  ASN A 112     -12.992  -7.945  14.465  1.00 26.24     0.137 C 
BRANCH  88  89
ATOM     89  CG  ASN A 112     -13.824  -8.572  15.561  1.00 21.77     0.217 C 
ATOM     90  ND2 ASN A 112     -14.979  -9.120  15.183  1.00  9.31    -0.370 N 
ATOM     91  H04 ASN A 112     -15.581  -9.553  15.868  1.00  9.31     0.159 HD
ATOM     92  H05 ASN A 112     -15.251  -9.102  14.210  1.00  9.31     0.159 HD
ATOM     93  OD1 ASN A 112     -13.440  -8.562  16.737  1.00 21.61    -0.274 OA
ENDBRANCH  88  89
ENDBRANCH  87  88
END_RES ASN A 112
BEGIN_RES PHE A 114
REMARK  2 active torsions:
REMARK  status: ('A' for Active; 'I' for Inactive)
REMARK   30  A    between atoms: CA   and  CB  
REMARK   31  A    between atoms: CB   and  CG  
ROOT
ATOM     94  CA  PHE A 114      -7.754  -3.619  17.012  1.00 26.06     0.180 C 
ENDROOT
BRANCH  94  95
ATOM     95  CB  PHE A 114      -8.890  -3.080  17.867  1.00 19.95     0.073 C 
BRANCH  95  96
ATOM     96  CG  PHE A 114      -9.218  -1.650  17.583  1.00 17.65    -0.056 A 
ATOM     97  CD1 PHE A 114      -8.211  -0.692  17.492  1.00 13.01     0.007 A 
ATOM     98  CE1 PHE A 114      -8.517   0.642  17.258  1.00  6.74     0.001 A 
ATOM     99  CZ  PHE A 114      -9.843   1.037  17.107  1.00  6.27     0.000 A 
ATOM    100  CE2 PHE A 114     -10.853   0.093  17.194  1.00 17.36     0.001 A 
ATOM    101  CD2 PHE A 114     -10.538  -1.249  17.432  1.00 18.39     0.007 A 
ENDBRANCH  95  96
ENDBRANCH  94  95
END_RES PHE A 114
BEGIN_RES VAL A 116
REMARK  1 active torsions:
REMARK  status: ('A' for Active; 'I' for Inactive)
REMARK   32  A    between atoms: CA   and  CB  
ROOT
ATOM    102  CA  VAL A 116      -2.467   0.283  18.565  1.00 13.48     0.180 C 
ENDROOT
BRANCH 102 103
ATOM    103  CB  VAL A 116      -3.101   1.238  19.599  1.00 20.86     0.009 C 
ATOM    104  CG1 VAL A 116      -3.204   2.644  19.002  1.00 25.01     0.012 C 
ATOM    105  CG2 VAL A 116      -4.449   0.725  20.050  1.00 25.34     0.012 C 
ENDBRANCH 102 103
END_RES VAL A 116
BEGIN_RES ILE A 123
REMARK  2 active torsions:
REMARK  status: ('A' for Active; 'I' for Inactive)
REMARK   33  A    between atoms: CA   and  CB  
REMARK   34  A    between atoms: CB   and  CG1 
ROOT
ATOM    106  CA  ILE A 123       1.557  -1.626  23.222  1.00 15.07     0.180 C 
ENDROOT
BRANCH 106 107
ATOM    107  CB  ILE A 123       1.697  -0.112  23.461  1.00 14.41     0.013 C 
ATOM    108  CG2 ILE A 123       3.103   0.208  23.938  1.00 18.35     0.012 C 
BRANCH 107 109
ATOM    109  CG1 ILE A 123       1.386   0.658  22.180  1.00 15.23     0.002 C 
ATOM    110  CD1 ILE A 123       0.253   1.645  22.327  1.00 14.67     0.005 C 
ENDBRANCH 107 109
ENDBRANCH 106 107
END_RES ILE A 123
BEGIN_RES LEU A 124
REMARK  2 active torsions:
REMARK  status: ('A' for Active; 'I' for Inactive)
REMARK   35  A    between atoms: CA   and  CB  
REMARK   36  A    between atoms: CB   and  CG  
ROOT
ATOM    111  CA  LEU A 124      -2.057  -2.686  23.524  1.00 11.86     0.177 C 
ENDROOT
BRANCH 111 112
ATOM    112  CB  LEU A 124      -2.698  -1.652  24.429  1.00 14.60     0.038 C 
BRANCH 112 113
ATOM    113  CG  LEU A 124      -2.627  -0.252  23.838  1.00 16.19    -0.020 C 
ATOM    114  CD1 LEU A 124      -4.052   0.221  23.494  1.00 22.07     0.009 C 
ATOM    115  CD2 LEU A 124      -1.948   0.673  24.816  1.00  9.12     0.009 C 
ENDBRANCH 112 113
ENDBRANCH 111 112
END_RES LEU A 124
BEGIN_RES PHE A 126
REMARK  2 active torsions:
REMARK  status: ('A' for Active; 'I' for Inactive)
REMARK   37  A    between atoms: CA   and  CB  
REMARK   38  A    between atoms: CB   and  CG  
ROOT
ATOM    116  CA  PHE A 126      -8.784  -4.792  22.233  1.00 23.15     0.180 C 
ENDROOT
BRANCH 116 117
ATOM    117  CB  PHE A 126      -9.823  -4.011  21.461  1.00 20.65     0.073 C 
BRANCH 117 118
ATOM    118  CG  PHE A 126     -10.949  -3.542  22.297  1.00 23.65    -0.056 A 
ATOM    119  CD2 PHE A 126     -12.212  -4.088  22.150  1.00 36.63     0.007 A 
ATOM    120  CE2 PHE A 126     -13.278  -3.643  22.944  1.00 36.27     0.001 A 
ATOM    121  CZ  PHE A 126     -13.070  -2.646  23.886  1.00 18.06     0.000 A 
ATOM    122  CE1 PHE A 126     -11.811  -2.101  24.036  1.00  5.50     0.001 A 
ATOM    123  CD1 PHE A 126     -10.755  -2.551  23.244  1.00 15.29     0.007 A 
ENDBRANCH 117 118
ENDBRANCH 116 117
END_RES PHE A 126
BEGIN_RES TRP A 131
REMARK  2 active torsions:
REMARK  status: ('A' for Active; 'I' for Inactive)
REMARK   39  A    between atoms: CA   and  CB  
REMARK   40  A    between atoms: CB   and  CG  
ROOT
ATOM    124  CA  TRP A 131      -8.096  -3.335  26.542  1.00 14.52     0.181 C 
ENDROOT
BRANCH 124 125
ATOM    125  CB  TRP A 131      -7.651  -1.877  26.607  1.00 13.06     0.075 C 
BRANCH 125 126
ATOM    126  CG  TRP A 131      -8.045  -1.053  25.401  1.00 16.97    -0.028 A 
ATOM    127  CD2 TRP A 131      -9.119  -0.112  25.326  1.00 11.34    -0.002 A 
ATOM    128  CE2 TRP A 131      -9.120   0.426  24.024  1.00  5.87     0.042 A 
ATOM    129  CE3 TRP A 131     -10.085   0.326  26.239  1.00  3.80     0.014 A 
ATOM    130  CZ2 TRP A 131     -10.048   1.385  23.613  1.00  1.35     0.030 A 
ATOM    131  NE1 TRP A 131      -8.093  -0.160  23.336  1.00 13.90    -0.365 N 
ATOM    132  CH2 TRP A 131     -10.983   1.797  24.530  1.00  1.00     0.002 A 
ATOM    133  CZ3 TRP A 131     -11.008   1.274  25.836  1.00  1.00     0.001 A 
ATOM    134  CD1 TRP A 131      -7.451  -1.047  24.168  1.00 17.22     0.096 A 
ATOM    135  H07 TRP A 131      -7.847   0.027  22.375  1.00 13.90     0.165 HD
ENDBRANCH 125 126
ENDBRANCH 124 125
END_RES TRP A 131
BEGIN_RES LEU A 148
REMARK  2 active torsions:
REMARK  status: ('A' for Active; 'I' for Inactive)
REMARK   41  A    between atoms: CA   and  CB  
REMARK   42  A    between atoms: CB   and  CG  
ROOT
ATOM    136  CA  LEU A 148      -9.018   3.259  29.295  1.00 16.99     0.177 C 
ENDROOT
BRANCH 136 137
ATOM    137  CB  LEU A 148      -8.166   2.574  28.236  1.00  6.39     0.038 C 
BRANCH 137 138
ATOM    138  CG  LEU A 148      -7.988   3.184  26.861  1.00  1.00    -0.020 C 
ATOM    139  CD2 LEU A 148      -6.564   3.616  26.663  1.00  1.00     0.009 C 
ATOM    140  CD1 LEU A 148      -8.927   4.370  26.741  1.00  2.71     0.009 C 
ENDBRANCH 137 138
ENDBRANCH 136 137
END_RES LEU A 148
BEGIN_RES THR A 154
REMARK  2 active torsions:
REMARK  status: ('A' for Active; 'I' for Inactive)
REMARK   43  A    between atoms: CA   and  CB  
REMARK   44  A    between atoms: CB   and  OG1 
ROOT
ATOM    141  CA  THR A 154     -15.990   3.959  24.426  1.00 20.45     0.205 C 
ENDROOT
BRANCH 141 142
ATOM    142  CB  THR A 154     -14.777   4.829  24.694  1.00 16.79     0.146 C 
ATOM    143  CG2 THR A 154     -13.651   4.464  23.746  1.00 20.24     0.042 C 
BRANCH 142 144
ATOM    144  OG1 THR A 154     -15.134   6.201  24.483  1.00 18.84    -0.393 OA
ATOM    145  H06 THR A 154     -15.436   6.584  25.309  1.00 18.84     0.210 HD
ENDBRANCH 142 144
ENDBRANCH 141 142
END_RES THR A 154
BEGIN_RES VAL A 158
REMARK  1 active torsions:
REMARK  status: ('A' for Active; 'I' for Inactive)
REMARK   45  A    between atoms: CA   and  CB  
ROOT
ATOM    146  CA  VAL A 158     -15.487  -0.189  19.892  1.00 15.49     0.180 C 
ENDROOT
BRANCH 146 147
ATOM    147  CB  VAL A 158     -14.291  -0.273  20.822  1.00  6.52     0.009 C 
ATOM    148  CG1 VAL A 158     -13.245  -1.214  20.271  1.00  1.00     0.012 C 
ATOM    149  CG2 VAL A 158     -13.725   1.102  21.001  1.00  5.99     0.012 C 
ENDBRANCH 146 147
END_RES VAL A 158
BEGIN_RES LEU A 161
REMARK  2 active torsions:
REMARK  status: ('A' for Active; 'I' for Inactive)
REMARK   46  A    between atoms: CA   and  CB  
REMARK   47  A    between atoms: CB   and  CG  
ROOT
ATOM    150  CA  LEU A 161     -18.031  -1.858  15.935  1.00 13.31     0.177 C 
ENDROOT
BRANCH 150 151
ATOM    151  CB  LEU A 161     -17.046  -0.706  16.001  1.00 14.13     0.038 C 
BRANCH 151 152
ATOM    152  CG  LEU A 161     -17.598   0.674  15.664  1.00 19.39    -0.020 C 
ATOM    153  CD2 LEU A 161     -17.726   0.833  14.168  1.00 27.75     0.009 C 
ATOM    154  CD1 LEU A 161     -16.666   1.718  16.216  1.00 18.59     0.009 C 
ENDBRANCH 151 152
ENDBRANCH 150 151
END_RES LEU A 161
BEGIN_RES GLN A 168
REMARK  3 active torsions:
REMARK  status: ('A' for Active; 'I' for Inactive)
REMARK   48  A    between atoms: CA   and  CB  
REMARK   49  A    between atoms: CB   and  CG  
REMARK   50  A    between atoms: CG   and  CD  
REMARK       I    between atoms: CD   and  NE2 
ROOT
ATOM    155  CA  GLN A 168     -22.035  -6.020   8.155  1.00 30.94     0.177 C 
ENDROOT
BRANCH 155 156
ATOM    156  CB  GLN A 168     -23.054  -5.218   8.946  1.00 41.76     0.044 C 
BRANCH 156 157
ATOM    157  CG  GLN A 168     -24.488  -5.527   8.610  1.00 61.20     0.105 C 
BRANCH 157 158
ATOM    158  CD  GLN A 168     -25.417  -4.396   9.006  1.00 75.49     0.215 C 
ATOM    159  NE2 GLN A 168     -25.555  -3.408   8.120  1.00 85.00    -0.370 N 
ATOM    160  H06 GLN A 168     -26.158  -2.624   8.327  1.00 85.00     0.159 HD
ATOM    161  H07 GLN A 168     -25.055  -3.443   7.243  1.00 85.00     0.159 HD
ATOM    162  OE1 GLN A 168     -26.003  -4.403  10.098  1.00 73.64    -0.274 OA
ENDBRANCH 157 158
ENDBRANCH 156 157
ENDBRANCH 155 156
END_RES GLN A 168
ENDMDL
MODEL 9
REMARK VINA RESULT:      -7.8      1.218      2.435
REMARK  Name = human_CD1d_NP40_pred.rank_0
REMARK  35 active torsions:
REMARK  status: ('A' for Active; 'I' for Inactive)
REMARK    1  A    between atoms: O_2  and  C_23
REMARK    2  A    between atoms: O_2  and  C_24
REMARK    3  A    between atoms: C_3  and  C_5
REMARK    4  A    between atoms: O_4  and  C_25
REMARK    5  A    between atoms: O_4  and  C_26
REMARK    6  A    between atoms: C_5  and  C_7
REMARK    7  A    between atoms: O_6  and  C_27
REMARK    8  A    between atoms: O_6  and  C_28
REMARK    9  A    between atoms: C_7  and  C_9
REMARK   10  A    between atoms: O_8  and  C_29
REMARK   11  A    between atoms: O_8  and  C_30
REMARK   12  A    between atoms: C_9  and  C_11
REMARK   13  A    between atoms: O_10  and  C_31
REMARK   14  A    between atoms: O_10  and  C_32
REMARK   15  A    between atoms: C_11  and  C_13
REMARK   16  A    between atoms: O_12  and  C_33
REMARK   17  A    between atoms: O_12  and  C_34
REMARK   18  A    between atoms: C_13  and  C_15
REMARK   19  A    between atoms: O_14  and  C_35
REMARK   20  A    between atoms: O_14  and  C_36
REMARK   21  A    between atoms: C_15  and  C_17
REMARK   22  A    between atoms: O_16  and  C_37
REMARK   23  A    between atoms: O_16  and  C_38
REMARK   24  A    between atoms: C_17  and  C_19
REMARK   25  A    between atoms: O_18  and  C_39
REMARK   26  A    between atoms: O_18  and  C_40
REMARK   27  A    between atoms: C_24  and  C_25
REMARK   28  A    between atoms: C_26  and  C_27
REMARK   29  A    between atoms: C_28  and  C_29
REMARK   30  A    between atoms: C_30  and  C_31
REMARK   31  A    between atoms: C_32  and  C_33
REMARK   32  A    between atoms: C_34  and  C_35
REMARK   33  A    between atoms: C_36  and  C_37
REMARK   34  A    between atoms: C_38  and  C_39
REMARK   35  A    between atoms: C_40  and  C_41
REMARK                            x       y       z     vdW  Elec       q    Type
REMARK                         _______ _______ _______ _____ _____    ______ ____
ROOT
ATOM      1  O   UNL     1     -11.459   2.331  12.983  0.00  0.00    +0.000 OA
ENDROOT
BRANCH   1   2
ATOM      2  C   UNL     1     -12.218   2.565  14.188  0.00  0.00    +0.000 C 
BRANCH   2   3
ATOM      3  C   UNL     1     -13.206   1.409  14.417  0.00  0.00    +0.000 C 
BRANCH   3   4
ATOM      4  O   UNL     1     -12.697   0.201  13.794  0.00  0.00    +0.000 OA
BRANCH   4   5
ATOM      5  C   UNL     1     -13.616  -0.897  13.969  0.00  0.00    +0.000 C 
BRANCH   5   6
ATOM      6  C   UNL     1     -13.560  -1.794  12.764  0.00  0.00    +0.000 C 
BRANCH   6   7
ATOM      7  O   UNL     1     -14.464  -1.258  11.739  0.00  0.00    +0.000 OA
BRANCH   7   8
ATOM      8  C   UNL     1     -13.855  -1.015  10.473  0.00  0.00    +0.000 C 
BRANCH   8   9
ATOM      9  C   UNL     1     -14.923  -0.877   9.379  0.00  0.00    +0.000 C 
BRANCH   9  10
ATOM     10  O   UNL     1     -16.251  -1.060   9.976  0.00  0.00    +0.000 OA
BRANCH  10  11
ATOM     11  C   UNL     1     -17.162   0.037   9.625  0.00  0.00    +0.000 C 
BRANCH  11  12
ATOM     12  C   UNL     1     -16.848   1.272  10.490  0.00  0.00    +0.000 C 
BRANCH  12  13
ATOM     13  O   UNL     1     -16.520   2.411   9.623  0.00  0.00    +0.000 OA
BRANCH  13  14
ATOM     14  C   UNL     1     -16.794   2.131   8.225  0.00  0.00    +0.000 C 
BRANCH  14  15
ATOM     15  C   UNL     1     -15.722   2.837   7.326  0.00  0.00    +0.000 C 
BRANCH  15  16
ATOM     16  O   UNL     1     -15.628   4.241   7.707  0.00  0.00    +0.000 OA
BRANCH  16  17
ATOM     17  C   UNL     1     -14.691   4.964   6.896  0.00  0.00    +0.000 C 
BRANCH  17  18
ATOM     18  C   UNL     1     -13.404   4.156   6.715  0.00  0.00    +0.000 C 
BRANCH  18  19
ATOM     19  O   UNL     1     -12.352   4.980   6.129  0.00  0.00    +0.000 OA
BRANCH  19  20
ATOM     20  C   UNL     1     -11.081   4.665   6.694  0.00  0.00    +0.000 C 
BRANCH  20  22
ATOM     21  O   UNL     1      -9.352   5.603   8.072  0.00  0.00    +0.000 OA
ATOM     22  C   UNL     1     -10.323   5.928   7.082  0.00  0.00    +0.000 C 
ENDBRANCH  20  22
ENDBRANCH  19  20
ENDBRANCH  18  19
ENDBRANCH  17  18
ENDBRANCH  16  17
ENDBRANCH  15  16
ENDBRANCH  14  15
ENDBRANCH  13  14
ENDBRANCH  12  13
ENDBRANCH  11  12
ENDBRANCH  10  11
ENDBRANCH   9  10
ENDBRANCH   8   9
ENDBRANCH   7   8
ENDBRANCH   6   7
ENDBRANCH   5   6
ENDBRANCH   4   5
ENDBRANCH   3   4
ENDBRANCH   2   3
ENDBRANCH   1   2
BRANCH   1  23
ATOM     23  C   UNL     1     -10.057   2.682  13.149  0.00  0.00    +0.000 C 
BRANCH  23  24
ATOM     24  C   UNL     1      -9.925   3.720  14.246  0.00  0.00    +0.000 C 
BRANCH  24  25
ATOM     25  O   UNL     1      -9.179   4.850  13.730  0.00  0.00    +0.000 OA
BRANCH  25  26
ATOM     26  C   UNL     1      -8.879   5.868  14.719  0.00  0.00    +0.000 C 
BRANCH  26  27
ATOM     27  C   UNL     1      -7.750   5.369  15.646  0.00  0.00    +0.000 C 
BRANCH  27  28
ATOM     28  O   UNL     1      -6.881   6.461  15.985  0.00  0.00    +0.000 OA
BRANCH  28  32
ATOM     29  C   UNL     1      -5.121   6.233  19.763  0.00  0.00    +0.000 A 
ATOM     30  C   UNL     1      -4.867   7.286  18.926  0.00  0.00    +0.000 A 
ATOM     31  C   UNL     1      -5.451   7.341  17.679  0.00  0.00    +0.000 A 
ATOM     32  C   UNL     1      -6.324   6.340  17.264  0.00  0.00    +0.000 A 
ATOM     33  C   UNL     1      -6.528   5.298  18.091  0.00  0.00    +0.000 A 
ATOM     34  C   UNL     1      -5.940   5.236  19.338  0.00  0.00    +0.000 A 
BRANCH  29  35
ATOM     35  C   UNL     1      -4.476   6.195  21.119  0.00  0.00    +0.000 C 
BRANCH  35  36
ATOM     36  C   UNL     1      -5.486   6.565  22.197  0.00  0.00    +0.000 C 
BRANCH  36  37
ATOM     37  C   UNL     1      -4.794   6.706  23.550  0.00  0.00    +0.000 C 
BRANCH  37  38
ATOM     38  C   UNL     1      -3.309   6.366  23.522  0.00  0.00    +0.000 C 
BRANCH  38  39
ATOM     39  C   UNL     1      -2.466   7.580  23.986  0.00  0.00    +0.000 C 
BRANCH  39  40
ATOM     40  C   UNL     1      -1.037   7.143  24.293  0.00  0.00    +0.000 C 
BRANCH  40  41
ATOM     41  C   UNL     1      -0.775   5.739  23.791  0.00  0.00    +0.000 C 
BRANCH  41  43
ATOM     42  C   UNL     1       1.360   6.495  24.855  0.00  0.00    +0.000 C 
ATOM     43  C   UNL     1       0.647   5.333  24.180  0.00  0.00    +0.000 C 
ENDBRANCH  41  43
ENDBRANCH  40  41
ENDBRANCH  39  40
ENDBRANCH  38  39
ENDBRANCH  37  38
ENDBRANCH  36  37
ENDBRANCH  35  36
ENDBRANCH  29  35
ENDBRANCH  28  32
ENDBRANCH  27  28
ENDBRANCH  26  27
ENDBRANCH  25  26
ENDBRANCH  24  25
ENDBRANCH  23  24
ENDBRANCH   1  23
TORSDOF 35
BEGIN_RES LEU A  10
REMARK  2 active torsions:
REMARK  status: ('A' for Active; 'I' for Inactive)
REMARK    1  A    between atoms: CA   and  CB  
REMARK    2  A    between atoms: CB   and  CG  
ROOT
ATOM      1  CA  LEU A  10     -10.775  -4.871   5.898  1.00 25.14     0.177 C 
ENDROOT
BRANCH   1   2
ATOM      2  CB  LEU A  10     -12.191  -4.387   6.226  1.00 17.87     0.038 C 
BRANCH   2   3
ATOM      3  CG  LEU A  10     -12.710  -3.279   5.307  1.00 24.95    -0.020 C 
ATOM      4  CD2 LEU A  10     -13.530  -2.326   6.110  1.00 26.38     0.009 C 
ATOM      5  CD1 LEU A  10     -13.526  -3.858   4.165  1.00 28.12     0.009 C 
ENDBRANCH   2   3
ENDBRANCH   1   2
END_RES LEU A  10
BEGIN_RES CYS A  12
REMARK  2 active torsions:
REMARK  status: ('A' for Active; 'I' for Inactive)
REMARK    3  A    between atoms: CA   and  CB  
REMARK    4  A    between atoms: CB   and  SG  
ROOT
ATOM      6  CA  CYS A  12      -8.555   0.470   8.750  1.00 23.16     0.185 C 
ENDROOT
BRANCH   6   7
ATOM      7  CB  CYS A  12      -9.828   0.763   9.555  1.00 20.43     0.105 C 
BRANCH   7   8
ATOM      8  SG  CYS A  12     -10.583   2.397   9.292  1.00 24.64    -0.180 SA
ATOM      9  H04 CYS A  12     -10.786   2.591   7.982  1.00 24.64     0.101 HD
ENDBRANCH   7   8
ENDBRANCH   6   7
END_RES CYS A  12
BEGIN_RES GLN A  14
REMARK  3 active torsions:
REMARK  status: ('A' for Active; 'I' for Inactive)
REMARK    5  A    between atoms: CA   and  CB  
REMARK    6  A    between atoms: CB   and  CG  
REMARK    7  A    between atoms: CG   and  CD  
REMARK       I    between atoms: CD   and  NE2 
ROOT
ATOM     10  CA  GLN A  14      -4.645   5.402  11.377  1.00 10.43     0.177 C 
ENDROOT
BRANCH  10  11
ATOM     11  CB  GLN A  14      -5.541   5.549  12.608  1.00 14.45     0.044 C 
BRANCH  11  12
ATOM     12  CG  GLN A  14      -6.429   6.772  12.583  1.00 13.74     0.105 C 
BRANCH  12  13
ATOM     13  CD  GLN A  14      -5.673   8.040  12.899  1.00 16.29     0.215 C 
ATOM     14  NE2 GLN A  14      -5.038   8.073  14.050  1.00  8.57    -0.370 N 
ATOM     15  H06 GLN A  14      -4.514   8.895  14.315  1.00  8.57     0.159 HD
ATOM     16  H07 GLN A  14      -5.074   7.276  14.670  1.00  8.57     0.159 HD
ATOM     17  OE1 GLN A  14      -5.658   8.977  12.115  1.00 23.55    -0.274 OA
ENDBRANCH  12  13
ENDBRANCH  11  12
ENDBRANCH  10  11
END_RES GLN A  14
BEGIN_RES SER A  16
REMARK  2 active torsions:
REMARK  status: ('A' for Active; 'I' for Inactive)
REMARK    8  A    between atoms: CA   and  CB  
REMARK    9  A    between atoms: CB   and  OG  
ROOT
ATOM     18  CA  SER A  16      -1.305  10.019  14.282  1.00  2.34     0.200 C 
ENDROOT
BRANCH  18  19
ATOM     19  CB  SER A  16      -2.242   9.935  15.479  1.00  3.12     0.199 C 
BRANCH  19  20
ATOM     20  OG  SER A  16      -2.449   8.583  15.848  1.00  1.00    -0.398 OA
ATOM     21  H04 SER A  16      -1.745   8.300  16.436  1.00  1.00     0.209 HD
ENDBRANCH  19  20
ENDBRANCH  18  19
END_RES SER A  16
BEGIN_RES LEU A  32
REMARK  2 active torsions:
REMARK  status: ('A' for Active; 'I' for Inactive)
REMARK   10  A    between atoms: CA   and  CB  
REMARK   11  A    between atoms: CB   and  CG  
ROOT
ATOM     22  CA  LEU A  32     -10.272  -4.106   1.587  1.00 16.16     0.177 C 
ENDROOT
BRANCH  22  23
ATOM     23  CB  LEU A  32     -11.613  -3.858   0.880  1.00 12.35     0.038 C 
BRANCH  23  24
ATOM     24  CG  LEU A  32     -12.582  -5.045   1.054  1.00  9.77    -0.020 C 
ATOM     25  CD1 LEU A  32     -13.996  -4.620   0.735  1.00  4.35     0.009 C 
ATOM     26  CD2 LEU A  32     -12.186  -6.197   0.169  1.00 10.60     0.009 C 
ENDBRANCH  23  24
ENDBRANCH  22  23
END_RES LEU A  32
BEGIN_RES HIS A  38
REMARK  2 active torsions:
REMARK  status: ('A' for Active; 'I' for Inactive)
REMARK   12  A    between atoms: CA   and  CB  
REMARK   13  A    between atoms: CB   and  CG  
ROOT
ATOM     27  CA  HIS A  38     -10.959   4.941   1.621  1.00 16.94     0.182 C 
ENDROOT
BRANCH  27  28
ATOM     28  CB  HIS A  38     -11.810   4.840   2.881  1.00 15.47     0.095 C 
BRANCH  28  29
ATOM     29  CG  HIS A  38     -12.991   3.935   2.741  1.00 18.62     0.053 A 
ATOM     30  CD2 HIS A  38     -14.146   4.082   2.048  1.00 15.06     0.116 A 
ATOM     31  NE2 HIS A  38     -14.876   2.937   2.237  1.00 18.12    -0.359 N 
ATOM     32  CE1 HIS A  38     -14.198   2.117   3.017  1.00 14.78     0.207 A 
ATOM     33  H06 HIS A  38     -15.788   2.752   1.843  1.00 18.12     0.166 HD
ATOM     34  ND1 HIS A  38     -13.058   2.695   3.337  1.00 16.58    -0.247 NA
ENDBRANCH  28  29
ENDBRANCH  27  28
END_RES HIS A  38
BEGIN_RES TRP A  63
REMARK  2 active torsions:
REMARK  status: ('A' for Active; 'I' for Inactive)
REMARK   14  A    between atoms: CA   and  CB  
REMARK   15  A    between atoms: CB   and  CG  
ROOT
ATOM     35  CA  TRP A  63     -22.437   6.257   6.543  1.00 27.04     0.181 C 
ENDROOT
BRANCH  35  36
ATOM     36  CB  TRP A  63     -22.360   6.642   5.068  1.00 31.37     0.075 C 
BRANCH  36  37
ATOM     37  CG  TRP A  63     -20.953   6.791   4.529  1.00 34.37    -0.028 A 
ATOM     38  CD2 TRP A  63     -19.882   5.841   4.624  1.00 33.79    -0.002 A 
ATOM     39  CE3 TRP A  63     -19.742   4.591   5.231  1.00 32.99     0.014 A 
ATOM     40  CE2 TRP A  63     -18.783   6.380   3.919  1.00 35.84     0.042 A 
ATOM     41  CZ3 TRP A  63     -18.529   3.927   5.119  1.00 32.93     0.001 A 
ATOM     42  CH2 TRP A  63     -17.455   4.490   4.411  1.00 39.24     0.002 A 
ATOM     43  CZ2 TRP A  63     -17.563   5.712   3.805  1.00 37.99     0.030 A 
ATOM     44  NE1 TRP A  63     -19.172   7.595   3.425  1.00 37.98    -0.365 N 
ATOM     45  H06 TRP A  63     -18.596   8.217   2.876  1.00 37.98     0.165 HD
ATOM     46  CD1 TRP A  63     -20.473   7.832   3.799  1.00 38.16     0.096 A 
ENDBRANCH  36  37
ENDBRANCH  35  36
END_RES TRP A  63
BEGIN_RES LEU A  66
REMARK  2 active torsions:
REMARK  status: ('A' for Active; 'I' for Inactive)
REMARK   16  A    between atoms: CA   and  CB  
REMARK   17  A    between atoms: CB   and  CG  
ROOT
ATOM     47  CA  LEU A  66     -20.004   6.489  11.120  1.00 10.90     0.177 C 
ENDROOT
BRANCH  47  48
ATOM     48  CB  LEU A  66     -19.626   5.453  10.069  1.00 13.57     0.038 C 
BRANCH  48  49
ATOM     49  CG  LEU A  66     -19.403   4.019  10.549  1.00  8.73    -0.020 C 
ATOM     50  CD1 LEU A  66     -19.276   3.975  12.049  1.00 14.23     0.009 C 
ATOM     51  CD2 LEU A  66     -20.573   3.180  10.104  1.00  1.92     0.009 C 
ENDBRANCH  48  49
ENDBRANCH  47  48
END_RES LEU A  66
BEGIN_RES PHE A  70
REMARK  2 active torsions:
REMARK  status: ('A' for Active; 'I' for Inactive)
REMARK   18  A    between atoms: CA   and  CB  
REMARK   19  A    between atoms: CB   and  CG  
ROOT
ATOM     52  CA  PHE A  70     -14.974   9.434  13.165  1.00  8.78     0.180 C 
ENDROOT
BRANCH  52  53
ATOM     53  CB  PHE A  70     -14.707   9.132  11.681  1.00  6.33     0.073 C 
BRANCH  53  54
ATOM     54  CG  PHE A  70     -13.952   7.850  11.458  1.00  3.42    -0.056 A 
ATOM     55  CD1 PHE A  70     -13.449   7.120  12.525  1.00 13.88     0.007 A 
ATOM     56  CE1 PHE A  70     -12.704   5.948  12.307  1.00 12.71     0.001 A 
ATOM     57  CZ  PHE A  70     -12.461   5.503  11.007  1.00  4.21     0.000 A 
ATOM     58  CE2 PHE A  70     -12.959   6.220   9.936  1.00  2.83     0.001 A 
ATOM     59  CD2 PHE A  70     -13.702   7.391  10.164  1.00  1.00     0.007 A 
ENDBRANCH  53  54
ENDBRANCH  52  53
END_RES PHE A  70
BEGIN_RES TYR A  73
REMARK  3 active torsions:
REMARK  status: ('A' for Active; 'I' for Inactive)
REMARK   20  A    between atoms: CA   and  CB  
REMARK   21  A    between atoms: CB   and  CG  
REMARK   22  A    between atoms: CZ   and  OH  
ROOT
ATOM     60  CA  TYR A  73     -13.212  10.166  17.260  1.00 12.17     0.180 C 
ENDROOT
BRANCH  60  61
ATOM     61  CB  TYR A  73     -13.301   8.846  16.517  1.00 12.84     0.073 C 
BRANCH  61  62
ATOM     62  CG  TYR A  73     -13.470   7.677  17.423  1.00 15.89    -0.056 A 
ATOM     63  CD1 TYR A  73     -13.737   6.422  16.922  1.00 16.00     0.010 A 
ATOM     64  CE1 TYR A  73     -13.927   5.331  17.770  1.00 13.55     0.037 A 
ATOM     65  CZ  TYR A  73     -13.846   5.514  19.136  1.00 18.13     0.065 A 
ATOM     66  CE2 TYR A  73     -13.580   6.757  19.662  1.00 15.89     0.037 A 
ATOM     67  CD2 TYR A  73     -13.393   7.832  18.802  1.00 21.86     0.010 A 
BRANCH  65  68
ATOM     68  OH  TYR A  73     -14.024   4.453  19.989  1.00 12.12    -0.361 OA
ATOM     69  H08 TYR A  73     -14.642   3.829  19.601  1.00 12.12     0.217 HD
ENDBRANCH  65  68
ENDBRANCH  61  62
ENDBRANCH  60  61
END_RES TYR A  73
BEGIN_RES PHE A  77
REMARK  2 active torsions:
REMARK  status: ('A' for Active; 'I' for Inactive)
REMARK   23  A    between atoms: CA   and  CB  
REMARK   24  A    between atoms: CB   and  CG  
ROOT
ATOM     70  CA  PHE A  77      -8.400  10.581  20.110  1.00 17.17     0.180 C 
ENDROOT
BRANCH  70  71
ATOM     71  CB  PHE A  77      -8.228   9.750  18.851  1.00 10.44     0.073 C 
BRANCH  71  72
ATOM     72  CG  PHE A  77      -8.837   8.386  18.941  1.00  6.07    -0.056 A 
ATOM     73  CD2 PHE A  77      -8.725   7.645  20.095  1.00  9.61     0.007 A 
ATOM     74  CE2 PHE A  77      -9.290   6.378  20.188  1.00  1.00     0.001 A 
ATOM     75  CZ  PHE A  77      -9.978   5.847  19.110  1.00  1.92     0.000 A 
ATOM     76  CE1 PHE A  77     -10.101   6.576  17.950  1.00  9.25     0.001 A 
ATOM     77  CD1 PHE A  77      -9.528   7.846  17.869  1.00  9.63     0.007 A 
ENDBRANCH  71  72
ENDBRANCH  70  71
END_RES PHE A  77
BEGIN_RES LEU A  96
REMARK  2 active torsions:
REMARK  status: ('A' for Active; 'I' for Inactive)
REMARK   25  A    between atoms: CA   and  CB  
REMARK   26  A    between atoms: CB   and  CG  
ROOT
ATOM     78  CA  LEU A  96       0.717   6.481  17.359  1.00 16.08     0.177 C 
ENDROOT
BRANCH  78  79
ATOM     79  CB  LEU A  96      -0.370   7.101  18.230  1.00 18.83     0.038 C 
BRANCH  79  80
ATOM     80  CG  LEU A  96      -0.166   6.909  19.733  1.00 19.03    -0.020 C 
ATOM     81  CD1 LEU A  96      -1.299   7.585  20.469  1.00 28.17     0.009 C 
ATOM     82  CD2 LEU A  96      -0.176   5.440  20.083  1.00 22.01     0.009 C 
ENDBRANCH  79  80
ENDBRANCH  78  79
END_RES LEU A  96
BEGIN_RES VAL A  98
REMARK  1 active torsions:
REMARK  status: ('A' for Active; 'I' for Inactive)
REMARK   27  A    between atoms: CA   and  CB  
ROOT
ATOM     83  CA  VAL A  98      -3.928   2.082  14.897  1.00 19.83     0.180 C 
ENDROOT
BRANCH  83  84
ATOM     84  CB  VAL A  98      -5.203   2.807  15.281  1.00 17.87     0.009 C 
ATOM     85  CG2 VAL A  98      -5.525   2.553  16.731  1.00 29.90     0.012 C 
ATOM     86  CG1 VAL A  98      -6.336   2.345  14.389  1.00 14.79     0.012 C 
ENDBRANCH  83  84
END_RES VAL A  98
BEGIN_RES ASN A 112
REMARK  2 active torsions:
REMARK  status: ('A' for Active; 'I' for Inactive)
REMARK   28  A    between atoms: CA   and  CB  
REMARK   29  A    between atoms: CB   and  CG  
REMARK       I    between atoms: CG   and  ND2 
ROOT
ATOM     87  CA  ASN A 112     -11.790  -8.793  14.069  1.00 37.70     0.185 C 
ENDROOT
BRANCH  87  88
ATOM     88  CB  ASN A 112     -12.992  -7.945  14.465  1.00 26.24     0.137 C 
BRANCH  88  89
ATOM     89  CG  ASN A 112     -13.818  -8.567  15.569  1.00 21.77     0.217 C 
ATOM     90  ND2 ASN A 112     -14.969  -9.127  15.197  1.00  9.31    -0.370 N 
ATOM     91  H04 ASN A 112     -15.567  -9.557  15.888  1.00  9.31     0.159 HD
ATOM     92  H05 ASN A 112     -15.243  -9.121  14.225  1.00  9.31     0.159 HD
ATOM     93  OD1 ASN A 112     -13.432  -8.542  16.743  1.00 21.61    -0.274 OA
ENDBRANCH  88  89
ENDBRANCH  87  88
END_RES ASN A 112
BEGIN_RES PHE A 114
REMARK  2 active torsions:
REMARK  status: ('A' for Active; 'I' for Inactive)
REMARK   30  A    between atoms: CA   and  CB  
REMARK   31  A    between atoms: CB   and  CG  
ROOT
ATOM     94  CA  PHE A 114      -7.754  -3.619  17.012  1.00 26.06     0.180 C 
ENDROOT
BRANCH  94  95
ATOM     95  CB  PHE A 114      -8.890  -3.080  17.867  1.00 19.95     0.073 C 
BRANCH  95  96
ATOM     96  CG  PHE A 114      -9.228  -1.654  17.573  1.00 17.65    -0.056 A 
ATOM     97  CD1 PHE A 114      -8.226  -0.697  17.443  1.00 13.01     0.007 A 
ATOM     98  CE1 PHE A 114      -8.540   0.634  17.199  1.00  6.74     0.001 A 
ATOM     99  CZ  PHE A 114      -9.870   1.025  17.077  1.00  6.27     0.000 A 
ATOM    100  CE2 PHE A 114     -10.876   0.080  17.203  1.00 17.36     0.001 A 
ATOM    101  CD2 PHE A 114     -10.552  -1.258  17.451  1.00 18.39     0.007 A 
ENDBRANCH  95  96
ENDBRANCH  94  95
END_RES PHE A 114
BEGIN_RES VAL A 116
REMARK  1 active torsions:
REMARK  status: ('A' for Active; 'I' for Inactive)
REMARK   32  A    between atoms: CA   and  CB  
ROOT
ATOM    102  CA  VAL A 116      -2.467   0.283  18.565  1.00 13.48     0.180 C 
ENDROOT
BRANCH 102 103
ATOM    103  CB  VAL A 116      -3.101   1.238  19.599  1.00 20.86     0.009 C 
ATOM    104  CG1 VAL A 116      -2.887   2.688  19.155  1.00 25.01     0.012 C 
ATOM    105  CG2 VAL A 116      -4.566   0.926  19.793  1.00 25.34     0.012 C 
ENDBRANCH 102 103
END_RES VAL A 116
BEGIN_RES ILE A 123
REMARK  2 active torsions:
REMARK  status: ('A' for Active; 'I' for Inactive)
REMARK   33  A    between atoms: CA   and  CB  
REMARK   34  A    between atoms: CB   and  CG1 
ROOT
ATOM    106  CA  ILE A 123       1.557  -1.626  23.222  1.00 15.07     0.180 C 
ENDROOT
BRANCH 106 107
ATOM    107  CB  ILE A 123       1.697  -0.112  23.461  1.00 14.41     0.013 C 
ATOM    108  CG2 ILE A 123       3.111   0.212  23.910  1.00 18.35     0.012 C 
BRANCH 107 109
ATOM    109  CG1 ILE A 123       1.358   0.659  22.188  1.00 15.23     0.002 C 
ATOM    110  CD1 ILE A 123       0.255   1.674  22.370  1.00 14.67     0.005 C 
ENDBRANCH 107 109
ENDBRANCH 106 107
END_RES ILE A 123
BEGIN_RES LEU A 124
REMARK  2 active torsions:
REMARK  status: ('A' for Active; 'I' for Inactive)
REMARK   35  A    between atoms: CA   and  CB  
REMARK   36  A    between atoms: CB   and  CG  
ROOT
ATOM    111  CA  LEU A 124      -2.057  -2.686  23.524  1.00 11.86     0.177 C 
ENDROOT
BRANCH 111 112
ATOM    112  CB  LEU A 124      -2.698  -1.652  24.429  1.00 14.60     0.038 C 
BRANCH 112 113
ATOM    113  CG  LEU A 124      -2.615  -0.250  23.844  1.00 16.19    -0.020 C 
ATOM    114  CD1 LEU A 124      -4.022   0.192  23.398  1.00 22.07     0.009 C 
ATOM    115  CD2 LEU A 124      -2.029   0.688  24.869  1.00  9.12     0.009 C 
ENDBRANCH 112 113
ENDBRANCH 111 112
END_RES LEU A 124
BEGIN_RES PHE A 126
REMARK  2 active torsions:
REMARK  status: ('A' for Active; 'I' for Inactive)
REMARK   37  A    between atoms: CA   and  CB  
REMARK   38  A    between atoms: CB   and  CG  
ROOT
ATOM    116  CA  PHE A 126      -8.784  -4.792  22.233  1.00 23.15     0.180 C 
ENDROOT
BRANCH 116 117
ATOM    117  CB  PHE A 126      -9.823  -4.011  21.461  1.00 20.65     0.073 C 
BRANCH 117 118
ATOM    118  CG  PHE A 126     -10.956  -3.554  22.294  1.00 23.65    -0.056 A 
ATOM    119  CD2 PHE A 126     -12.213  -4.114  22.144  1.00 36.63     0.007 A 
ATOM    120  CE2 PHE A 126     -13.286  -3.682  22.935  1.00 36.27     0.001 A 
ATOM    121  CZ  PHE A 126     -13.092  -2.683  23.877  1.00 18.06     0.000 A 
ATOM    122  CE1 PHE A 126     -11.839  -2.124  24.031  1.00  5.50     0.001 A 
ATOM    123  CD1 PHE A 126     -10.776  -2.562  23.242  1.00 15.29     0.007 A 
ENDBRANCH 117 118
ENDBRANCH 116 117
END_RES PHE A 126
BEGIN_RES TRP A 131
REMARK  2 active torsions:
REMARK  status: ('A' for Active; 'I' for Inactive)
REMARK   39  A    between atoms: CA   and  CB  
REMARK   40  A    between atoms: CB   and  CG  
ROOT
ATOM    124  CA  TRP A 131      -8.096  -3.335  26.542  1.00 14.52     0.181 C 
ENDROOT
BRANCH 124 125
ATOM    125  CB  TRP A 131      -7.651  -1.877  26.607  1.00 13.06     0.075 C 
BRANCH 125 126
ATOM    126  CG  TRP A 131      -8.044  -1.053  25.401  1.00 16.97    -0.028 A 
ATOM    127  CD2 TRP A 131      -9.130  -0.127  25.318  1.00 11.34    -0.002 A 
ATOM    128  CE2 TRP A 131      -9.125   0.417  24.019  1.00  5.87     0.042 A 
ATOM    129  CE3 TRP A 131     -10.110   0.294  26.224  1.00  3.80     0.014 A 
ATOM    130  CZ2 TRP A 131     -10.061   1.365  23.602  1.00  1.35     0.030 A 
ATOM    131  NE1 TRP A 131      -8.084  -0.153  23.339  1.00 13.90    -0.365 N 
ATOM    132  CH2 TRP A 131     -11.011   1.761  24.511  1.00  1.00     0.002 A 
ATOM    133  CZ3 TRP A 131     -11.042   1.232  25.815  1.00  1.00     0.001 A 
ATOM    134  CD1 TRP A 131      -7.438  -1.034  24.174  1.00 17.22     0.096 A 
ATOM    135  H07 TRP A 131      -7.830   0.042  22.381  1.00 13.90     0.165 HD
ENDBRANCH 125 126
ENDBRANCH 124 125
END_RES TRP A 131
BEGIN_RES LEU A 148
REMARK  2 active torsions:
REMARK  status: ('A' for Active; 'I' for Inactive)
REMARK   41  A    between atoms: CA   and  CB  
REMARK   42  A    between atoms: CB   and  CG  
ROOT
ATOM    136  CA  LEU A 148      -9.018   3.259  29.295  1.00 16.99     0.177 C 
ENDROOT
BRANCH 136 137
ATOM    137  CB  LEU A 148      -8.166   2.574  28.236  1.00  6.39     0.038 C 
BRANCH 137 138
ATOM    138  CG  LEU A 148      -8.002   3.175  26.855  1.00  1.00    -0.020 C 
ATOM    139  CD2 LEU A 148      -6.798   2.593  26.173  1.00  1.00     0.009 C 
ATOM    140  CD1 LEU A 148      -7.857   4.678  27.004  1.00  2.71     0.009 C 
ENDBRANCH 137 138
ENDBRANCH 136 137
END_RES LEU A 148
BEGIN_RES THR A 154
REMARK  2 active torsions:
REMARK  status: ('A' for Active; 'I' for Inactive)
REMARK   43  A    between atoms: CA   and  CB  
REMARK   44  A    between atoms: CB   and  OG1 
ROOT
ATOM    141  CA  THR A 154     -15.990   3.959  24.426  1.00 20.45     0.205 C 
ENDROOT
BRANCH 141 142
ATOM    142  CB  THR A 154     -14.777   4.829  24.694  1.00 16.79     0.146 C 
ATOM    143  CG2 THR A 154     -13.661   4.484  23.726  1.00 20.24     0.042 C 
BRANCH 142 144
ATOM    144  OG1 THR A 154     -15.141   6.203  24.510  1.00 18.84    -0.393 OA
ATOM    145  H06 THR A 154     -14.350   6.746  24.507  1.00 18.84     0.210 HD
ENDBRANCH 142 144
ENDBRANCH 141 142
END_RES THR A 154
BEGIN_RES VAL A 158
REMARK  1 active torsions:
REMARK  status: ('A' for Active; 'I' for Inactive)
REMARK   45  A    between atoms: CA   and  CB  
ROOT
ATOM    146  CA  VAL A 158     -15.487  -0.189  19.892  1.00 15.49     0.180 C 
ENDROOT
BRANCH 146 147
ATOM    147  CB  VAL A 158     -14.291  -0.273  20.822  1.00  6.52     0.009 C 
ATOM    148  CG1 VAL A 158     -13.245  -1.215  20.271  1.00  1.00     0.012 C 
ATOM    149  CG2 VAL A 158     -13.724   1.102  21.001  1.00  5.99     0.012 C 
ENDBRANCH 146 147
END_RES VAL A 158
BEGIN_RES LEU A 161
REMARK  2 active torsions:
REMARK  status: ('A' for Active; 'I' for Inactive)
REMARK   46  A    between atoms: CA   and  CB  
REMARK   47  A    between atoms: CB   and  CG  
ROOT
ATOM    150  CA  LEU A 161     -18.031  -1.858  15.935  1.00 13.31     0.177 C 
ENDROOT
BRANCH 150 151
ATOM    151  CB  LEU A 161     -17.046  -0.706  16.001  1.00 14.13     0.038 C 
BRANCH 151 152
ATOM    152  CG  LEU A 161     -17.566   0.653  15.551  1.00 19.39    -0.020 C 
ATOM    153  CD2 LEU A 161     -17.683   0.696  14.046  1.00 27.75     0.009 C 
ATOM    154  CD1 LEU A 161     -16.616   1.720  16.025  1.00 18.59     0.009 C 
ENDBRANCH 151 152
ENDBRANCH 150 151
END_RES LEU A 161
BEGIN_RES GLN A 168
REMARK  3 active torsions:
REMARK  status: ('A' for Active; 'I' for Inactive)
REMARK   48  A    between atoms: CA   and  CB  
REMARK   49  A    between atoms: CB   and  CG  
REMARK   50  A    between atoms: CG   and  CD  
REMARK       I    between atoms: CD   and  NE2 
ROOT
ATOM    155  CA  GLN A 168     -22.035  -6.020   8.155  1.00 30.94     0.177 C 
ENDROOT
BRANCH 155 156
ATOM    156  CB  GLN A 168     -23.054  -5.218   8.946  1.00 41.76     0.044 C 
BRANCH 156 157
ATOM    157  CG  GLN A 168     -24.323  -5.962   9.263  1.00 61.20     0.105 C 
BRANCH 157 158
ATOM    158  CD  GLN A 168     -24.531  -6.113  10.758  1.00 75.49     0.215 C 
ATOM    159  NE2 GLN A 168     -24.093  -5.109  11.519  1.00 85.00    -0.370 N 
ATOM    160  H06 GLN A 168     -24.200  -5.152  12.523  1.00 85.00     0.159 HD
ATOM    161  H07 GLN A 168     -23.653  -4.306  11.092  1.00 85.00     0.159 HD
ATOM    162  OE1 GLN A 168     -25.073  -7.123  11.228  1.00 73.64    -0.274 OA
ENDBRANCH 157 158
ENDBRANCH 156 157
ENDBRANCH 155 156
END_RES GLN A 168
ENDMDL
