REMARK  Name = 9548661
REMARK  9 active torsions:
REMARK  status: ('A' for Active; 'I' for Inactive)
REMARK    1  A    between atoms: O_1  and  C_11
REMARK    2  A    between atoms: O_2  and  C_24
REMARK    3  A    between atoms: C_5  and  C_19
REMARK    4  A    between atoms: C_9  and  C_22
REMARK    5  A    between atoms: C_10  and  C_20
REMARK    6  A    between atoms: C_20  and  C_25
REMARK    7  A    between atoms: C_20  and  C_26
REMARK    8  A    between atoms: C_25  and  C_27
REMARK    9  A    between atoms: C_27  and  C_28
REMARK                            x       y       z     vdW  Elec       q    Type
REMARK                         _______ _______ _______ _____ _____    ______ ____
ROOT
ATOM      1  C   UNL     1      -0.987   0.074   0.227  0.00  0.00    +0.000 C 
ATOM      2  C   UNL     1      -0.011   1.031  -0.498  0.00  0.00    +0.000 C 
ATOM      3  C   UNL     1       1.314   1.215   0.252  0.00  0.00    +0.000 C 
ATOM      4  C   UNL     1       2.007  -0.177   0.408  0.00  0.00    +0.000 C 
ATOM      5  C   UNL     1       3.402  -0.062   1.133  0.00  0.00    +0.000 C 
ATOM      6  C   UNL     1      -2.192   0.183  -0.744  0.00  0.00    +0.000 C 
ATOM      7  C   UNL     1      -0.324  -1.315   0.331  0.00  0.00    +0.000 C 
ATOM      8  C   UNL     1       1.048  -1.230   1.034  0.00  0.00    +0.000 C 
ATOM      9  C   UNL     1       4.298   0.976   0.376  0.00  0.00    +0.000 C 
ATOM     10  C   UNL     1      -0.864   2.262  -0.795  0.00  0.00    +0.000 C 
ATOM     11  C   UNL     1       2.227   2.215  -0.470  0.00  0.00    +0.000 C 
ATOM     12  C   UNL     1      -2.268   1.693  -1.068  0.00  0.00    +0.000 C 
ATOM     13  C   UNL     1       3.595   2.331   0.195  0.00  0.00    +0.000 C 
ATOM     14  C   UNL     1       4.160  -1.421   1.185  0.00  0.00    +0.000 C 
ATOM     15  C   UNL     1       4.799   0.450  -0.986  0.00  0.00    +0.000 C 
ATOM     16  C   UNL     1       4.620  -1.927  -0.176  0.00  0.00    +0.000 C 
ATOM     17  C   UNL     1       5.504  -0.897  -0.868  0.00  0.00    +0.000 C 
ATOM     18  H   UNL     1       0.243   0.600  -1.481  0.00  0.00    +0.000 HD
ATOM     19  H   UNL     1       1.102   1.633   1.241  0.00  0.00    +0.000 HD
ATOM     20  H   UNL     1       2.201  -0.535  -0.612  0.00  0.00    +0.000 HD
ATOM     21  H   UNL     1      -1.937  -0.326  -1.685  0.00  0.00    +0.000 HD
ATOM     22  H   UNL     1      -0.916  -2.026   0.904  0.00  0.00    +0.000 HD
ATOM     23  H   UNL     1       1.517  -2.218   0.974  0.00  0.00    +0.000 HD
ATOM     24  H   UNL     1       0.894  -1.016   2.096  0.00  0.00    +0.000 HD
ATOM     25  H   UNL     1       5.196   1.160   0.984  0.00  0.00    +0.000 HD
ATOM     26  H   UNL     1      -0.488   2.821  -1.658  0.00  0.00    +0.000 HD
ATOM     27  H   UNL     1      -0.890   2.949   0.058  0.00  0.00    +0.000 HD
ATOM     28  H   UNL     1       1.760   3.208  -0.478  0.00  0.00    +0.000 HD
ATOM     29  H   UNL     1       2.347   1.925  -1.520  0.00  0.00    +0.000 HD
ATOM     30  H   UNL     1      -3.002   2.217  -0.446  0.00  0.00    +0.000 HD
ATOM     31  H   UNL     1      -2.551   1.851  -2.115  0.00  0.00    +0.000 HD
ATOM     32  H   UNL     1       4.228   3.005  -0.397  0.00  0.00    +0.000 HD
ATOM     33  H   UNL     1       3.477   2.816   1.172  0.00  0.00    +0.000 HD
ATOM     34  H   UNL     1       3.556  -2.192   1.675  0.00  0.00    +0.000 HD
ATOM     35  H   UNL     1       5.052  -1.308   1.818  0.00  0.00    +0.000 HD
ATOM     36  H   UNL     1       3.979   0.362  -1.709  0.00  0.00    +0.000 HD
ATOM     37  H   UNL     1       5.492   1.175  -1.432  0.00  0.00    +0.000 HD
ATOM     38  H   UNL     1       5.179  -2.863  -0.052  0.00  0.00    +0.000 HD
ATOM     39  H   UNL     1       3.764  -2.184  -0.810  0.00  0.00    +0.000 HD
ATOM     40  H   UNL     1       6.441  -0.771  -0.311  0.00  0.00    +0.000 HD
ENDROOT
BRANCH   1  41
ATOM     41  C   UNL     1      -1.383   0.551   1.650  0.00  0.00    +0.000 C 
ATOM     42  H   UNL     1      -1.925   1.502   1.638  0.00  0.00    +0.000 HD
ATOM     43  H   UNL     1      -2.026  -0.178   2.153  0.00  0.00    +0.000 HD
ATOM     44  H   UNL     1      -0.518   0.695   2.303  0.00  0.00    +0.000 HD
ENDBRANCH   1  41
BRANCH   5  45
ATOM     45  C   UNL     1       3.229   0.389   2.607  0.00  0.00    +0.000 C 
ATOM     46  H   UNL     1       2.663   1.318   2.707  0.00  0.00    +0.000 HD
ATOM     47  H   UNL     1       2.718  -0.374   3.203  0.00  0.00    +0.000 HD
ATOM     48  H   UNL     1       4.205   0.558   3.079  0.00  0.00    +0.000 HD
ENDBRANCH   5  45
BRANCH   7  49
ATOM     49  O   UNL     1      -0.134  -1.878  -0.968  0.00  0.00    +0.000 OA
ATOM     50  H   UNL     1       0.273  -2.753  -0.854  0.00  0.00    +0.000 HD
ENDBRANCH   7  49
BRANCH  17  51
ATOM     51  O   UNL     1       5.836  -1.353  -2.175  0.00  0.00    +0.000 OA
ATOM     52  H   UNL     1       6.289  -2.208  -2.081  0.00  0.00    +0.000 HD
ENDBRANCH  17  51
BRANCH   6  53
ATOM     53  C   UNL     1      -3.515  -0.384  -0.248  0.00  0.00    +0.000 C 
ATOM     54  H   UNL     1      -3.833   0.146   0.657  0.00  0.00    +0.000 HD
BRANCH  53  55
ATOM     55  C   UNL     1      -3.349  -1.864   0.115  0.00  0.00    +0.000 C 
ATOM     56  H   UNL     1      -4.311  -2.364   0.250  0.00  0.00    +0.000 HD
ATOM     57  H   UNL     1      -2.864  -1.985   1.084  0.00  0.00    +0.000 HD
ATOM     58  H   UNL     1      -2.807  -2.421  -0.655  0.00  0.00    +0.000 HD
ENDBRANCH  53  55
BRANCH  53  59
ATOM     59  C   UNL     1      -4.615  -0.167  -1.310  0.00  0.00    +0.000 C 
ATOM     60  H   UNL     1      -4.731   0.903  -1.518  0.00  0.00    +0.000 HD
ATOM     61  H   UNL     1      -4.298  -0.629  -2.255  0.00  0.00    +0.000 HD
BRANCH  59  62
ATOM     62  C   UNL     1      -5.986  -0.736  -0.949  0.00  0.00    +0.000 C 
ATOM     63  H   UNL     1      -6.669  -0.525  -1.783  0.00  0.00    +0.000 HD
ATOM     64  H   UNL     1      -5.959  -1.828  -0.871  0.00  0.00    +0.000 HD
BRANCH  62  67
ATOM     65  O   UNL     1      -7.329  -0.927   1.000  0.00  0.00    +0.000 OA
ATOM     66  O   UNL     1      -6.438   1.104   0.450  0.00  0.00    +0.000 OA
ATOM     67  C   UNL     1      -6.647  -0.134   0.294  0.00  0.00    +0.000 C 
ENDBRANCH  62  67
ENDBRANCH  59  62
ENDBRANCH  53  59
ENDBRANCH   6  53
TORSDOF 9
