MODEL 1
REMARK VINA RESULT:      -9.1      0.000      0.000
REMARK  Name = 9548661
REMARK  9 active torsions:
REMARK  status: ('A' for Active; 'I' for Inactive)
REMARK    1  A    between atoms: O_1  and  C_11
REMARK    2  A    between atoms: O_2  and  C_24
REMARK    3  A    between atoms: C_5  and  C_19
REMARK    4  A    between atoms: C_9  and  C_22
REMARK    5  A    between atoms: C_10  and  C_20
REMARK    6  A    between atoms: C_20  and  C_25
REMARK    7  A    between atoms: C_20  and  C_26
REMARK    8  A    between atoms: C_25  and  C_27
REMARK    9  A    between atoms: C_27  and  C_28
REMARK                            x       y       z     vdW  Elec       q    Type
REMARK                         _______ _______ _______ _____ _____    ______ ____
ROOT
ATOM      1  C   UNL     1      -4.956   5.596  23.410  0.00  0.00    +0.000 C 
ATOM      2  C   UNL     1      -5.646   5.275  22.062  0.00  0.00    +0.000 C 
ATOM      3  C   UNL     1      -7.053   4.690  22.234  0.00  0.00    +0.000 C 
ATOM      4  C   UNL     1      -7.938   5.715  23.014  0.00  0.00    +0.000 C 
ATOM      5  C   UNL     1      -9.417   5.200  23.192  0.00  0.00    +0.000 C 
ATOM      6  C   UNL     1      -3.587   6.081  22.866  0.00  0.00    +0.000 C 
ATOM      7  C   UNL     1      -5.802   6.649  24.154  0.00  0.00    +0.000 C 
ATOM      8  C   UNL     1      -7.258   6.172  24.337  0.00  0.00    +0.000 C 
ATOM      9  C   UNL     1     -10.012   4.834  21.790  0.00  0.00    +0.000 C 
ATOM     10  C   UNL     1      -4.600   4.462  21.304  0.00  0.00    +0.000 C 
ATOM     11  C   UNL     1      -7.676   4.333  20.878  0.00  0.00    +0.000 C 
ATOM     12  C   UNL     1      -3.255   5.068  21.746  0.00  0.00    +0.000 C 
ATOM     13  C   UNL     1      -9.118   3.853  21.015  0.00  0.00    +0.000 C 
ATOM     14  C   UNL     1     -10.341   6.262  23.857  0.00  0.00    +0.000 C 
ATOM     15  C   UNL     1     -10.313   6.077  20.926  0.00  0.00    +0.000 C 
ATOM     16  C   UNL     1     -10.599   7.489  22.991  0.00  0.00    +0.000 C 
ATOM     17  C   UNL     1     -11.196   7.090  21.647  0.00  0.00    +0.000 C 
ATOM     18  H   UNL     1      -5.765   6.213  21.493  0.00  0.00    +0.000 HD
ATOM     19  H   UNL     1      -6.978   3.760  22.806  0.00  0.00    +0.000 HD
ATOM     20  H   UNL     1      -7.982   6.616  22.388  0.00  0.00    +0.000 HD
ATOM     21  H   UNL     1      -3.724   7.056  22.376  0.00  0.00    +0.000 HD
ATOM     22  H   UNL     1      -5.425   6.868  25.152  0.00  0.00    +0.000 HD
ATOM     23  H   UNL     1      -7.832   7.002  24.763  0.00  0.00    +0.000 HD
ATOM     24  H   UNL     1      -7.280   5.361  25.072  0.00  0.00    +0.000 HD
ATOM     25  H   UNL     1     -10.977   4.330  21.949  0.00  0.00    +0.000 HD
ATOM     26  H   UNL     1      -4.731   4.538  20.219  0.00  0.00    +0.000 HD
ATOM     27  H   UNL     1      -4.645   3.400  21.569  0.00  0.00    +0.000 HD
ATOM     28  H   UNL     1      -7.091   3.540  20.396  0.00  0.00    +0.000 HD
ATOM     29  H   UNL     1      -7.633   5.197  20.205  0.00  0.00    +0.000 HD
ATOM     30  H   UNL     1      -2.590   4.269  22.089  0.00  0.00    +0.000 HD
ATOM     31  H   UNL     1      -2.763   5.568  20.904  0.00  0.00    +0.000 HD
ATOM     32  H   UNL     1      -9.535   3.676  20.015  0.00  0.00    +0.000 HD
ATOM     33  H   UNL     1      -9.123   2.877  21.516  0.00  0.00    +0.000 HD
ATOM     34  H   UNL     1      -9.946   6.578  24.827  0.00  0.00    +0.000 HD
ATOM     35  H   UNL     1     -11.314   5.800  24.078  0.00  0.00    +0.000 HD
ATOM     36  H   UNL     1      -9.390   6.575  20.603  0.00  0.00    +0.000 HD
ATOM     37  H   UNL     1     -10.809   5.772  19.996  0.00  0.00    +0.000 HD
ATOM     38  H   UNL     1     -11.289   8.167  23.509  0.00  0.00    +0.000 HD
ATOM     39  H   UNL     1      -9.680   8.067  22.845  0.00  0.00    +0.000 HD
ATOM     40  H   UNL     1     -12.197   6.663  21.792  0.00  0.00    +0.000 HD
ENDROOT
BRANCH   1  41
ATOM     41  C   UNL     1      -4.776   4.356  24.326  0.00  0.00    +0.000 C 
ATOM     42  H   UNL     1      -4.576   3.441  23.759  0.00  0.00    +0.000 HD
ATOM     43  H   UNL     1      -3.943   4.490  25.023  0.00  0.00    +0.000 HD
ATOM     44  H   UNL     1      -5.657   4.153  24.941  0.00  0.00    +0.000 HD
ENDBRANCH   1  41
BRANCH   5  45
ATOM     45  C   UNL     1      -9.467   3.953  24.112  0.00  0.00    +0.000 C 
ATOM     46  H   UNL     1      -9.421   3.011  23.559  0.00  0.00    +0.000 HD
ATOM     47  H   UNL     1      -8.643   3.952  24.832  0.00  0.00    +0.000 HD
ATOM     48  H   UNL     1     -10.397   3.936  24.694  0.00  0.00    +0.000 HD
ENDBRANCH   5  45
BRANCH   7  49
ATOM     49  O   UNL     1      -5.816   7.882  23.432  0.00  0.00    +0.000 OA
ATOM     50  H   UNL     1      -6.735   8.062  23.174  0.00  0.00    +0.000 HD
ENDBRANCH   7  49
BRANCH  17  51
ATOM     51  O   UNL     1     -11.333   8.242  20.824  0.00  0.00    +0.000 OA
ATOM     52  H   UNL     1     -10.974   8.021  19.948  0.00  0.00    +0.000 HD
ENDBRANCH  17  51
BRANCH   6  53
ATOM     53  C   UNL     1      -2.465   6.224  23.886  0.00  0.00    +0.000 C 
ATOM     54  H   UNL     1      -2.811   5.889  24.871  0.00  0.00    +0.000 HD
BRANCH  53  55
ATOM     55  C   UNL     1      -2.056   7.696  24.014  0.00  0.00    +0.000 C 
ATOM     56  H   UNL     1      -2.892   8.329  24.318  0.00  0.00    +0.000 HD
ATOM     57  H   UNL     1      -1.762   8.113  23.051  0.00  0.00    +0.000 HD
ATOM     58  H   UNL     1      -1.262   7.842  24.752  0.00  0.00    +0.000 HD
ENDBRANCH  53  55
BRANCH  53  59
ATOM     59  C   UNL     1      -1.275   5.323  23.493  0.00  0.00    +0.000 C 
ATOM     60  H   UNL     1      -1.622   4.299  23.310  0.00  0.00    +0.000 HD
ATOM     61  H   UNL     1      -0.854   5.677  22.542  0.00  0.00    +0.000 HD
BRANCH  59  62
ATOM     62  C   UNL     1      -0.139   5.267  24.514  0.00  0.00    +0.000 C 
ATOM     63  H   UNL     1       0.591   4.523  24.166  0.00  0.00    +0.000 HD
ATOM     64  H   UNL     1       0.413   6.213  24.551  0.00  0.00    +0.000 HD
BRANCH  62  67
ATOM     65  O   UNL     1      -0.530   5.734  26.809  0.00  0.00    +0.000 OA
ATOM     66  O   UNL     1      -0.812   3.602  26.037  0.00  0.00    +0.000 OA
ATOM     67  C   UNL     1      -0.538   4.832  25.926  0.00  0.00    +0.000 C 
ENDBRANCH  62  67
ENDBRANCH  59  62
ENDBRANCH  53  59
ENDBRANCH   6  53
TORSDOF 9
ENDMDL
MODEL 2
REMARK VINA RESULT:      -8.7      1.891      3.028
REMARK  Name = 9548661
REMARK  9 active torsions:
REMARK  status: ('A' for Active; 'I' for Inactive)
REMARK    1  A    between atoms: O_1  and  C_11
REMARK    2  A    between atoms: O_2  and  C_24
REMARK    3  A    between atoms: C_5  and  C_19
REMARK    4  A    between atoms: C_9  and  C_22
REMARK    5  A    between atoms: C_10  and  C_20
REMARK    6  A    between atoms: C_20  and  C_25
REMARK    7  A    between atoms: C_20  and  C_26
REMARK    8  A    between atoms: C_25  and  C_27
REMARK    9  A    between atoms: C_27  and  C_28
REMARK                            x       y       z     vdW  Elec       q    Type
REMARK                         _______ _______ _______ _____ _____    ______ ____
ROOT
ATOM      1  C   UNL     1      -3.991   5.180  23.187  0.00  0.00    +0.000 C 
ATOM      2  C   UNL     1      -4.880   6.424  23.423  0.00  0.00    +0.000 C 
ATOM      3  C   UNL     1      -6.165   6.408  22.586  0.00  0.00    +0.000 C 
ATOM      4  C   UNL     1      -6.991   5.131  22.947  0.00  0.00    +0.000 C 
ATOM      5  C   UNL     1      -8.353   5.068  22.156  0.00  0.00    +0.000 C 
ATOM      6  C   UNL     1      -2.800   5.561  24.106  0.00  0.00    +0.000 C 
ATOM      7  C   UNL     1      -4.787   3.924  23.597  0.00  0.00    +0.000 C 
ATOM      8  C   UNL     1      -6.130   3.840  22.839  0.00  0.00    +0.000 C 
ATOM      9  C   UNL     1      -9.155   6.392  22.394  0.00  0.00    +0.000 C 
ATOM     10  C   UNL     1      -3.914   7.596  23.263  0.00  0.00    +0.000 C 
ATOM     11  C   UNL     1      -6.987   7.685  22.806  0.00  0.00    +0.000 C 
ATOM     12  C   UNL     1      -2.580   7.064  23.817  0.00  0.00    +0.000 C 
ATOM     13  C   UNL     1      -8.323   7.644  22.071  0.00  0.00    +0.000 C 
ATOM     14  C   UNL     1      -9.242   3.868  22.597  0.00  0.00    +0.000 C 
ATOM     15  C   UNL     1      -9.732   6.491  23.823  0.00  0.00    +0.000 C 
ATOM     16  C   UNL     1      -9.777   3.981  24.018  0.00  0.00    +0.000 C 
ATOM     17  C   UNL     1     -10.566   5.271  24.200  0.00  0.00    +0.000 C 
ATOM     18  H   UNL     1      -5.195   6.439  24.480  0.00  0.00    +0.000 HD
ATOM     19  H   UNL     1      -5.893   6.382  21.526  0.00  0.00    +0.000 HD
ATOM     20  H   UNL     1      -7.239   5.223  24.013  0.00  0.00    +0.000 HD
ATOM     21  H   UNL     1      -3.123   5.489  25.154  0.00  0.00    +0.000 HD
ATOM     22  H   UNL     1      -4.258   2.997  23.382  0.00  0.00    +0.000 HD
ATOM     23  H   UNL     1      -6.696   2.999  23.254  0.00  0.00    +0.000 HD
ATOM     24  H   UNL     1      -5.935   3.604  21.789  0.00  0.00    +0.000 HD
ATOM     25  H   UNL     1     -10.018   6.396  21.713  0.00  0.00    +0.000 HD
ATOM     26  H   UNL     1      -4.249   8.479  23.816  0.00  0.00    +0.000 HD
ATOM     27  H   UNL     1      -3.803   7.885  22.213  0.00  0.00    +0.000 HD
ATOM     28  H   UNL     1      -6.423   8.557  22.452  0.00  0.00    +0.000 HD
ATOM     29  H   UNL     1      -7.156   7.844  23.877  0.00  0.00    +0.000 HD
ATOM     30  H   UNL     1      -1.785   7.236  23.083  0.00  0.00    +0.000 HD
ATOM     31  H   UNL     1      -2.303   7.598  24.733  0.00  0.00    +0.000 HD
ATOM     32  H   UNL     1      -8.897   8.548  22.315  0.00  0.00    +0.000 HD
ATOM     33  H   UNL     1      -8.138   7.692  20.991  0.00  0.00    +0.000 HD
ATOM     34  H   UNL     1      -8.709   2.918  22.483  0.00  0.00    +0.000 HD
ATOM     35  H   UNL     1     -10.105   3.797  21.920  0.00  0.00    +0.000 HD
ATOM     36  H   UNL     1      -8.940   6.627  24.568  0.00  0.00    +0.000 HD
ATOM     37  H   UNL     1     -10.358   7.389  23.909  0.00  0.00    +0.000 HD
ATOM     38  H   UNL     1     -10.424   3.123  24.238  0.00  0.00    +0.000 HD
ATOM     39  H   UNL     1      -8.963   3.924  24.750  0.00  0.00    +0.000 HD
ATOM     40  H   UNL     1     -11.475   5.246  23.586  0.00  0.00    +0.000 HD
ENDROOT
BRANCH   1  41
ATOM     41  C   UNL     1      -3.521   5.021  21.716  0.00  0.00    +0.000 C 
ATOM     42  H   UNL     1      -3.003   4.073  21.541  0.00  0.00    +0.000 HD
ATOM     43  H   UNL     1      -4.365   5.059  21.020  0.00  0.00    +0.000 HD
ATOM     44  H   UNL     1      -2.834   5.812  21.405  0.00  0.00    +0.000 HD
ENDBRANCH   1  41
BRANCH   5  45
ATOM     45  C   UNL     1      -8.107   4.884  20.636  0.00  0.00    +0.000 C 
ATOM     46  H   UNL     1      -8.255   3.856  20.299  0.00  0.00    +0.000 HD
ATOM     47  H   UNL     1      -8.768   5.524  20.042  0.00  0.00    +0.000 HD
ATOM     48  H   UNL     1      -7.078   5.161  20.372  0.00  0.00    +0.000 HD
ENDBRANCH   5  45
BRANCH   7  49
ATOM     49  O   UNL     1      -5.058   3.938  24.999  0.00  0.00    +0.000 OA
ATOM     50  H   UNL     1      -4.289   4.330  25.445  0.00  0.00    +0.000 HD
ENDBRANCH   7  49
BRANCH  17  51
ATOM     51  O   UNL     1     -10.968   5.398  25.560  0.00  0.00    +0.000 OA
ATOM     52  H   UNL     1     -10.915   4.516  25.965  0.00  0.00    +0.000 HD
ENDBRANCH  17  51
BRANCH   6  53
ATOM     53  C   UNL     1      -1.531   4.735  23.948  0.00  0.00    +0.000 C 
ATOM     54  H   UNL     1      -1.669   3.986  23.160  0.00  0.00    +0.000 HD
BRANCH  53  55
ATOM     55  C   UNL     1      -1.225   3.989  25.251  0.00  0.00    +0.000 C 
ATOM     56  H   UNL     1      -2.020   4.110  25.990  0.00  0.00    +0.000 HD
ATOM     57  H   UNL     1      -0.349   4.403  25.752  0.00  0.00    +0.000 HD
ATOM     58  H   UNL     1      -1.100   2.913  25.092  0.00  0.00    +0.000 HD
ENDBRANCH  53  55
BRANCH  53  59
ATOM     59  C   UNL     1      -0.360   5.642  23.510  0.00  0.00    +0.000 C 
ATOM     60  H   UNL     1       0.045   5.297  22.552  0.00  0.00    +0.000 HD
ATOM     61  H   UNL     1      -0.740   6.658  23.332  0.00  0.00    +0.000 HD
BRANCH  59  62
ATOM     62  C   UNL     1       0.791   5.743  24.509  0.00  0.00    +0.000 C 
ATOM     63  H   UNL     1       0.718   4.887  25.194  0.00  0.00    +0.000 HD
ATOM     64  H   UNL     1       1.762   5.631  24.015  0.00  0.00    +0.000 HD
BRANCH  62  67
ATOM     65  O   UNL     1       1.111   8.073  24.834  0.00  0.00    +0.000 OA
ATOM     66  O   UNL     1       0.482   6.772  26.605  0.00  0.00    +0.000 OA
ATOM     67  C   UNL     1       0.791   6.990  25.397  0.00  0.00    +0.000 C 
ENDBRANCH  62  67
ENDBRANCH  59  62
ENDBRANCH  53  59
ENDBRANCH   6  53
TORSDOF 9
ENDMDL
MODEL 3
REMARK VINA RESULT:      -7.7      2.877      8.665
REMARK  Name = 9548661
REMARK  9 active torsions:
REMARK  status: ('A' for Active; 'I' for Inactive)
REMARK    1  A    between atoms: O_1  and  C_11
REMARK    2  A    between atoms: O_2  and  C_24
REMARK    3  A    between atoms: C_5  and  C_19
REMARK    4  A    between atoms: C_9  and  C_22
REMARK    5  A    between atoms: C_10  and  C_20
REMARK    6  A    between atoms: C_20  and  C_25
REMARK    7  A    between atoms: C_20  and  C_26
REMARK    8  A    between atoms: C_25  and  C_27
REMARK    9  A    between atoms: C_27  and  C_28
REMARK                            x       y       z     vdW  Elec       q    Type
REMARK                         _______ _______ _______ _____ _____    ______ ____
ROOT
ATOM      1  C   UNL     1      -9.782   6.079  22.260  0.00  0.00    +0.000 C 
ATOM      2  C   UNL     1      -8.654   7.100  21.976  0.00  0.00    +0.000 C 
ATOM      3  C   UNL     1      -7.427   6.900  22.874  0.00  0.00    +0.000 C 
ATOM      4  C   UNL     1      -6.862   5.460  22.650  0.00  0.00    +0.000 C 
ATOM      5  C   UNL     1      -5.568   5.195  23.509  0.00  0.00    +0.000 C 
ATOM      6  C   UNL     1     -10.841   6.611  21.258  0.00  0.00    +0.000 C 
ATOM      7  C   UNL     1      -9.240   4.661  21.984  0.00  0.00    +0.000 C 
ATOM      8  C   UNL     1      -7.968   4.377  22.811  0.00  0.00    +0.000 C 
ATOM      9  C   UNL     1      -4.509   6.310  23.214  0.00  0.00    +0.000 C 
ATOM     10  C   UNL     1      -9.370   8.448  22.001  0.00  0.00    +0.000 C 
ATOM     11  C   UNL     1      -6.359   7.967  22.601  0.00  0.00    +0.000 C 
ATOM     12  C   UNL     1     -10.765   8.146  21.423  0.00  0.00    +0.000 C 
ATOM     13  C   UNL     1      -5.083   7.724  23.402  0.00  0.00    +0.000 C 
ATOM     14  C   UNL     1      -4.923   3.811  23.203  0.00  0.00    +0.000 C 
ATOM     15  C   UNL     1      -3.876   6.175  21.812  0.00  0.00    +0.000 C 
ATOM     16  C   UNL     1      -4.329   3.699  21.805  0.00  0.00    +0.000 C 
ATOM     17  C   UNL     1      -3.291   4.788  21.567  0.00  0.00    +0.000 C 
ATOM     18  H   UNL     1      -8.307   6.965  20.938  0.00  0.00    +0.000 HD
ATOM     19  H   UNL     1      -7.734   7.015  23.919  0.00  0.00    +0.000 HD
ATOM     20  H   UNL     1      -6.565   5.412  21.594  0.00  0.00    +0.000 HD
ATOM     21  H   UNL     1     -10.504   6.390  20.235  0.00  0.00    +0.000 HD
ATOM     22  H   UNL     1      -9.951   3.878  22.240  0.00  0.00    +0.000 HD
ATOM     23  H   UNL     1      -7.567   3.410  22.488  0.00  0.00    +0.000 HD
ATOM     24  H   UNL     1      -8.241   4.271  23.865  0.00  0.00    +0.000 HD
ATOM     25  H   UNL     1      -3.686   6.200  23.935  0.00  0.00    +0.000 HD
ATOM     26  H   UNL     1      -8.847   9.200  21.402  0.00  0.00    +0.000 HD
ATOM     27  H   UNL     1      -9.456   8.839  23.021  0.00  0.00    +0.000 HD
ATOM     28  H   UNL     1      -6.748   8.959  22.862  0.00  0.00    +0.000 HD
ATOM     29  H   UNL     1      -6.126   8.001  21.531  0.00  0.00    +0.000 HD
ATOM     30  H   UNL     1     -11.533   8.531  22.103  0.00  0.00    +0.000 HD
ATOM     31  H   UNL     1     -10.898   8.647  20.458  0.00  0.00    +0.000 HD
ATOM     32  H   UNL     1      -4.332   8.473  23.120  0.00  0.00    +0.000 HD
ATOM     33  H   UNL     1      -5.291   7.896  24.465  0.00  0.00    +0.000 HD
ATOM     34  H   UNL     1      -5.639   2.997  23.361  0.00  0.00    +0.000 HD
ATOM     35  H   UNL     1      -4.114   3.627  23.925  0.00  0.00    +0.000 HD
ATOM     36  H   UNL     1      -4.600   6.403  21.021  0.00  0.00    +0.000 HD
ATOM     37  H   UNL     1      -3.081   6.922  21.690  0.00  0.00    +0.000 HD
ATOM     38  H   UNL     1      -3.860   2.715  21.681  0.00  0.00    +0.000 HD
ATOM     39  H   UNL     1      -5.113   3.743  21.040  0.00  0.00    +0.000 HD
ATOM     40  H   UNL     1      -2.427   4.635  22.226  0.00  0.00    +0.000 HD
ENDROOT
BRANCH   1  41
ATOM     41  C   UNL     1     -10.323   6.138  23.713  0.00  0.00    +0.000 C 
ATOM     42  H   UNL     1      -9.533   6.326  24.448  0.00  0.00    +0.000 HD
ATOM     43  H   UNL     1     -11.067   6.931  23.833  0.00  0.00    +0.000 HD
ATOM     44  H   UNL     1     -10.815   5.211  24.018  0.00  0.00    +0.000 HD
ENDBRANCH   1  41
BRANCH   5  45
ATOM     45  C   UNL     1      -5.896   5.189  25.025  0.00  0.00    +0.000 C 
ATOM     46  H   UNL     1      -6.431   6.084  25.351  0.00  0.00    +0.000 HD
ATOM     47  H   UNL     1      -6.506   4.322  25.300  0.00  0.00    +0.000 HD
ATOM     48  H   UNL     1      -4.977   5.131  25.622  0.00  0.00    +0.000 HD
ENDBRANCH   5  45
BRANCH   7  49
ATOM     49  O   UNL     1      -8.925   4.506  20.599  0.00  0.00    +0.000 OA
ATOM     50  H   UNL     1      -9.394   3.718  20.276  0.00  0.00    +0.000 HD
ENDBRANCH   7  49
BRANCH  17  51
ATOM     51  O   UNL     1      -2.827   4.721  20.223  0.00  0.00    +0.000 OA
ATOM     52  H   UNL     1      -3.563   4.987  19.645  0.00  0.00    +0.000 HD
ENDBRANCH  17  51
BRANCH   6  53
ATOM     53  C   UNL     1     -12.254   6.067  21.414  0.00  0.00    +0.000 C 
ATOM     54  H   UNL     1     -12.381   5.638  22.415  0.00  0.00    +0.000 HD
BRANCH  53  55
ATOM     55  C   UNL     1     -12.502   4.949  20.395  0.00  0.00    +0.000 C 
ATOM     56  H   UNL     1     -13.532   4.946  20.032  0.00  0.00    +0.000 HD
ATOM     57  H   UNL     1     -12.392   3.964  20.849  0.00  0.00    +0.000 HD
ATOM     58  H   UNL     1     -11.856   5.038  19.517  0.00  0.00    +0.000 HD
ENDBRANCH  53  55
BRANCH  53  59
ATOM     59  C   UNL     1     -13.280   7.213  21.279  0.00  0.00    +0.000 C 
ATOM     60  H   UNL     1     -13.586   7.563  22.271  0.00  0.00    +0.000 HD
ATOM     61  H   UNL     1     -12.798   8.070  20.788  0.00  0.00    +0.000 HD
BRANCH  59  62
ATOM     62  C   UNL     1     -14.538   6.867  20.484  0.00  0.00    +0.000 C 
ATOM     63  H   UNL     1     -14.805   7.743  19.878  0.00  0.00    +0.000 HD
ATOM     64  H   UNL     1     -14.348   6.067  19.761  0.00  0.00    +0.000 HD
BRANCH  62  67
ATOM     65  O   UNL     1     -16.215   7.471  22.052  0.00  0.00    +0.000 OA
ATOM     66  O   UNL     1     -16.210   5.360  21.177  0.00  0.00    +0.000 OA
ATOM     67  C   UNL     1     -15.780   6.542  21.318  0.00  0.00    +0.000 C 
ENDBRANCH  62  67
ENDBRANCH  59  62
ENDBRANCH  53  59
ENDBRANCH   6  53
TORSDOF 9
ENDMDL
MODEL 4
REMARK VINA RESULT:      -7.2      1.855      8.222
REMARK  Name = 9548661
REMARK  9 active torsions:
REMARK  status: ('A' for Active; 'I' for Inactive)
REMARK    1  A    between atoms: O_1  and  C_11
REMARK    2  A    between atoms: O_2  and  C_24
REMARK    3  A    between atoms: C_5  and  C_19
REMARK    4  A    between atoms: C_9  and  C_22
REMARK    5  A    between atoms: C_10  and  C_20
REMARK    6  A    between atoms: C_20  and  C_25
REMARK    7  A    between atoms: C_20  and  C_26
REMARK    8  A    between atoms: C_25  and  C_27
REMARK    9  A    between atoms: C_27  and  C_28
REMARK                            x       y       z     vdW  Elec       q    Type
REMARK                         _______ _______ _______ _____ _____    ______ ____
ROOT
ATOM      1  C   UNL     1      -8.808   6.197  22.556  0.00  0.00    +0.000 C 
ATOM      2  C   UNL     1      -8.327   4.842  23.127  0.00  0.00    +0.000 C 
ATOM      3  C   UNL     1      -6.976   4.396  22.554  0.00  0.00    +0.000 C 
ATOM      4  C   UNL     1      -5.902   5.482  22.882  0.00  0.00    +0.000 C 
ATOM      5  C   UNL     1      -4.472   5.072  22.362  0.00  0.00    +0.000 C 
ATOM      6  C   UNL     1     -10.178   6.287  23.277  0.00  0.00    +0.000 C 
ATOM      7  C   UNL     1      -7.774   7.279  22.928  0.00  0.00    +0.000 C 
ATOM      8  C   UNL     1      -6.361   6.899  22.433  0.00  0.00    +0.000 C 
ATOM      9  C   UNL     1      -4.096   3.662  22.930  0.00  0.00    +0.000 C 
ATOM     10  C   UNL     1      -9.537   3.926  22.954  0.00  0.00    +0.000 C 
ATOM     11  C   UNL     1      -6.566   3.022  23.102  0.00  0.00    +0.000 C 
ATOM     12  C   UNL     1     -10.747   4.853  23.166  0.00  0.00    +0.000 C 
ATOM     13  C   UNL     1      -5.175   2.607  22.635  0.00  0.00    +0.000 C 
ATOM     14  C   UNL     1      -3.369   6.085  22.789  0.00  0.00    +0.000 C 
ATOM     15  C   UNL     1      -3.781   3.692  24.441  0.00  0.00    +0.000 C 
ATOM     16  C   UNL     1      -3.098   6.111  24.287  0.00  0.00    +0.000 C 
ATOM     17  C   UNL     1      -2.717   4.726  24.795  0.00  0.00    +0.000 C 
ATOM     18  H   UNL     1      -8.186   4.946  24.216  0.00  0.00    +0.000 HD
ATOM     19  H   UNL     1      -7.073   4.290  21.469  0.00  0.00    +0.000 HD
ATOM     20  H   UNL     1      -5.846   5.532  23.978  0.00  0.00    +0.000 HD
ATOM     21  H   UNL     1     -10.005   6.472  24.347  0.00  0.00    +0.000 HD
ATOM     22  H   UNL     1      -7.999   8.250  22.490  0.00  0.00    +0.000 HD
ATOM     23  H   UNL     1      -5.658   7.642  22.825  0.00  0.00    +0.000 HD
ATOM     24  H   UNL     1      -6.331   6.978  21.342  0.00  0.00    +0.000 HD
ATOM     25  H   UNL     1      -3.175   3.326  22.431  0.00  0.00    +0.000 HD
ATOM     26  H   UNL     1      -9.535   3.105  23.679  0.00  0.00    +0.000 HD
ATOM     27  H   UNL     1      -9.566   3.483  21.953  0.00  0.00    +0.000 HD
ATOM     28  H   UNL     1      -7.284   2.260  22.774  0.00  0.00    +0.000 HD
ATOM     29  H   UNL     1      -6.605   3.027  24.198  0.00  0.00    +0.000 HD
ATOM     30  H   UNL     1     -11.443   4.744  22.327  0.00  0.00    +0.000 HD
ATOM     31  H   UNL     1     -11.288   4.579  24.079  0.00  0.00    +0.000 HD
ATOM     32  H   UNL     1      -4.905   1.653  23.107  0.00  0.00    +0.000 HD
ATOM     33  H   UNL     1      -5.206   2.407  21.557  0.00  0.00    +0.000 HD
ATOM     34  H   UNL     1      -3.607   7.097  22.444  0.00  0.00    +0.000 HD
ATOM     35  H   UNL     1      -2.428   5.822  22.284  0.00  0.00    +0.000 HD
ATOM     36  H   UNL     1      -4.682   3.890  25.035  0.00  0.00    +0.000 HD
ATOM     37  H   UNL     1      -3.438   2.703  24.769  0.00  0.00    +0.000 HD
ATOM     38  H   UNL     1      -2.285   6.815  24.503  0.00  0.00    +0.000 HD
ATOM     39  H   UNL     1      -3.965   6.494  24.837  0.00  0.00    +0.000 HD
ATOM     40  H   UNL     1      -1.755   4.420  24.365  0.00  0.00    +0.000 HD
ENDROOT
BRANCH   1  41
ATOM     41  C   UNL     1      -8.997   6.189  21.015  0.00  0.00    +0.000 C 
ATOM     42  H   UNL     1      -8.066   6.395  20.477  0.00  0.00    +0.000 HD
ATOM     43  H   UNL     1      -9.365   5.221  20.661  0.00  0.00    +0.000 HD
ATOM     44  H   UNL     1      -9.723   6.933  20.675  0.00  0.00    +0.000 HD
ENDBRANCH   1  41
BRANCH   5  45
ATOM     45  C   UNL     1      -4.434   5.026  20.812  0.00  0.00    +0.000 C 
ATOM     46  H   UNL     1      -3.548   4.522  20.419  0.00  0.00    +0.000 HD
ATOM     47  H   UNL     1      -5.312   4.514  20.404  0.00  0.00    +0.000 HD
ATOM     48  H   UNL     1      -4.436   6.040  20.392  0.00  0.00    +0.000 HD
ENDBRANCH   5  45
BRANCH   7  49
ATOM     49  O   UNL     1      -7.725   7.460  24.344  0.00  0.00    +0.000 OA
ATOM     50  H   UNL     1      -8.640   7.503  24.668  0.00  0.00    +0.000 HD
ENDBRANCH   7  49
BRANCH  17  51
ATOM     51  O   UNL     1      -2.568   4.759  26.210  0.00  0.00    +0.000 OA
ATOM     52  H   UNL     1      -2.444   3.844  26.513  0.00  0.00    +0.000 HD
ENDBRANCH  17  51
BRANCH   6  53
ATOM     53  C   UNL     1     -11.143   7.348  22.768  0.00  0.00    +0.000 C 
ATOM     54  H   UNL     1     -10.585   8.220  22.409  0.00  0.00    +0.000 HD
BRANCH  53  55
ATOM     55  C   UNL     1     -12.055   7.818  23.907  0.00  0.00    +0.000 C 
ATOM     56  H   UNL     1     -13.011   8.198  23.538  0.00  0.00    +0.000 HD
ATOM     57  H   UNL     1     -11.630   8.675  24.431  0.00  0.00    +0.000 HD
ATOM     58  H   UNL     1     -12.284   7.015  24.613  0.00  0.00    +0.000 HD
ENDBRANCH  53  55
BRANCH  53  59
ATOM     59  C   UNL     1     -11.948   6.801  21.569  0.00  0.00    +0.000 C 
ATOM     60  H   UNL     1     -11.301   6.718  20.688  0.00  0.00    +0.000 HD
ATOM     61  H   UNL     1     -12.284   5.780  21.798  0.00  0.00    +0.000 HD
BRANCH  59  62
ATOM     62  C   UNL     1     -13.178   7.621  21.184  0.00  0.00    +0.000 C 
ATOM     63  H   UNL     1     -13.423   8.278  22.030  0.00  0.00    +0.000 HD
ATOM     64  H   UNL     1     -12.963   8.297  20.350  0.00  0.00    +0.000 HD
BRANCH  62  67
ATOM     65  O   UNL     1     -15.397   6.967  21.718  0.00  0.00    +0.000 OA
ATOM     66  O   UNL     1     -14.382   6.079  19.874  0.00  0.00    +0.000 OA
ATOM     67  C   UNL     1     -14.449   6.817  20.899  0.00  0.00    +0.000 C 
ENDBRANCH  62  67
ENDBRANCH  59  62
ENDBRANCH  53  59
ENDBRANCH   6  53
TORSDOF 9
ENDMDL
MODEL 5
REMARK VINA RESULT:      -7.1      8.693     11.745
REMARK  Name = 9548661
REMARK  9 active torsions:
REMARK  status: ('A' for Active; 'I' for Inactive)
REMARK    1  A    between atoms: O_1  and  C_11
REMARK    2  A    between atoms: O_2  and  C_24
REMARK    3  A    between atoms: C_5  and  C_19
REMARK    4  A    between atoms: C_9  and  C_22
REMARK    5  A    between atoms: C_10  and  C_20
REMARK    6  A    between atoms: C_20  and  C_25
REMARK    7  A    between atoms: C_20  and  C_26
REMARK    8  A    between atoms: C_25  and  C_27
REMARK    9  A    between atoms: C_27  and  C_28
REMARK                            x       y       z     vdW  Elec       q    Type
REMARK                         _______ _______ _______ _____ _____    ______ ____
ROOT
ATOM      1  C   UNL     1     -13.284   3.497  16.570  0.00  0.00    +0.000 C 
ATOM      2  C   UNL     1     -11.750   3.673  16.474  0.00  0.00    +0.000 C 
ATOM      3  C   UNL     1     -11.118   2.823  15.365  0.00  0.00    +0.000 C 
ATOM      4  C   UNL     1     -11.751   3.224  13.994  0.00  0.00    +0.000 C 
ATOM      5  C   UNL     1     -11.117   2.421  12.795  0.00  0.00    +0.000 C 
ATOM      6  C   UNL     1     -13.553   4.413  17.792  0.00  0.00    +0.000 C 
ATOM      7  C   UNL     1     -13.913   3.946  15.235  0.00  0.00    +0.000 C 
ATOM      8  C   UNL     1     -13.305   3.176  14.042  0.00  0.00    +0.000 C 
ATOM      9  C   UNL     1      -9.561   2.598  12.815  0.00  0.00    +0.000 C 
ATOM     10  C   UNL     1     -11.272   3.479  17.911  0.00  0.00    +0.000 C 
ATOM     11  C   UNL     1      -9.592   2.984  15.343  0.00  0.00    +0.000 C 
ATOM     12  C   UNL     1     -12.405   4.069  18.770  0.00  0.00    +0.000 C 
ATOM     13  C   UNL     1      -8.950   2.236  14.179  0.00  0.00    +0.000 C 
ATOM     14  C   UNL     1     -11.648   2.897  11.411  0.00  0.00    +0.000 C 
ATOM     15  C   UNL     1      -9.116   4.015  12.392  0.00  0.00    +0.000 C 
ATOM     16  C   UNL     1     -11.214   4.307  11.032  0.00  0.00    +0.000 C 
ATOM     17  C   UNL     1      -9.696   4.430  11.045  0.00  0.00    +0.000 C 
ATOM     18  H   UNL     1     -11.529   4.725  16.226  0.00  0.00    +0.000 HD
ATOM     19  H   UNL     1     -11.325   1.768  15.571  0.00  0.00    +0.000 HD
ATOM     20  H   UNL     1     -11.500   4.283  13.842  0.00  0.00    +0.000 HD
ATOM     21  H   UNL     1     -13.403   5.460  17.491  0.00  0.00    +0.000 HD
ATOM     22  H   UNL     1     -14.987   3.774  15.193  0.00  0.00    +0.000 HD
ATOM     23  H   UNL     1     -13.703   3.617  13.122  0.00  0.00    +0.000 HD
ATOM     24  H   UNL     1     -13.650   2.138  14.072  0.00  0.00    +0.000 HD
ATOM     25  H   UNL     1      -9.128   1.907  12.077  0.00  0.00    +0.000 HD
ATOM     26  H   UNL     1     -10.324   3.993  18.099  0.00  0.00    +0.000 HD
ATOM     27  H   UNL     1     -11.126   2.419  18.147  0.00  0.00    +0.000 HD
ATOM     28  H   UNL     1      -9.163   2.602  16.279  0.00  0.00    +0.000 HD
ATOM     29  H   UNL     1      -9.326   4.046  15.295  0.00  0.00    +0.000 HD
ATOM     30  H   UNL     1     -12.708   3.337  19.528  0.00  0.00    +0.000 HD
ATOM     31  H   UNL     1     -12.062   4.966  19.297  0.00  0.00    +0.000 HD
ATOM     32  H   UNL     1      -7.871   2.438  14.171  0.00  0.00    +0.000 HD
ATOM     33  H   UNL     1      -9.049   1.157  14.349  0.00  0.00    +0.000 HD
ATOM     34  H   UNL     1     -12.740   2.827  11.362  0.00  0.00    +0.000 HD
ATOM     35  H   UNL     1     -11.279   2.214  10.633  0.00  0.00    +0.000 HD
ATOM     36  H   UNL     1      -9.390   4.763  13.145  0.00  0.00    +0.000 HD
ATOM     37  H   UNL     1      -8.021   4.059  12.336  0.00  0.00    +0.000 HD
ATOM     38  H   UNL     1     -11.592   4.553  10.032  0.00  0.00    +0.000 HD
ATOM     39  H   UNL     1     -11.664   5.050  11.701  0.00  0.00    +0.000 HD
ATOM     40  H   UNL     1      -9.262   3.807  10.253  0.00  0.00    +0.000 HD
ENDROOT
BRANCH   1  41
ATOM     41  C   UNL     1     -13.724   2.038  16.869  0.00  0.00    +0.000 C 
ATOM     42  H   UNL     1     -14.738   1.825  16.515  0.00  0.00    +0.000 HD
ATOM     43  H   UNL     1     -13.058   1.313  16.391  0.00  0.00    +0.000 HD
ATOM     44  H   UNL     1     -13.712   1.804  17.937  0.00  0.00    +0.000 HD
ENDBRANCH   1  41
BRANCH   5  45
ATOM     45  C   UNL     1     -11.462   0.912  12.890  0.00  0.00    +0.000 C 
ATOM     46  H   UNL     1     -10.644   0.310  13.292  0.00  0.00    +0.000 HD
ATOM     47  H   UNL     1     -12.339   0.740  13.523  0.00  0.00    +0.000 HD
ATOM     48  H   UNL     1     -11.701   0.504  11.900  0.00  0.00    +0.000 HD
ENDBRANCH   5  45
BRANCH   7  49
ATOM     49  O   UNL     1     -13.704   5.343  15.027  0.00  0.00    +0.000 OA
ATOM     50  H   UNL     1     -12.878   5.588  15.478  0.00  0.00    +0.000 HD
ENDBRANCH   7  49
BRANCH  17  51
ATOM     51  O   UNL     1      -9.323   5.779  10.785  0.00  0.00    +0.000 OA
ATOM     52  H   UNL     1     -10.060   6.202  10.313  0.00  0.00    +0.000 HD
ENDBRANCH  17  51
BRANCH   6  53
ATOM     53  C   UNL     1     -14.930   4.302  18.432  0.00  0.00    +0.000 C 
ATOM     54  H   UNL     1     -15.370   3.324  18.205  0.00  0.00    +0.000 HD
BRANCH  53  55
ATOM     55  C   UNL     1     -15.863   5.375  17.860  0.00  0.00    +0.000 C 
ATOM     56  H   UNL     1     -16.600   4.954  17.172  0.00  0.00    +0.000 HD
ATOM     57  H   UNL     1     -15.318   6.088  17.241  0.00  0.00    +0.000 HD
ATOM     58  H   UNL     1     -16.421   5.898  18.642  0.00  0.00    +0.000 HD
ENDBRANCH  53  55
BRANCH  53  59
ATOM     59  C   UNL     1     -14.808   4.398  19.969  0.00  0.00    +0.000 C 
ATOM     60  H   UNL     1     -15.039   3.429  20.426  0.00  0.00    +0.000 HD
ATOM     61  H   UNL     1     -13.765   4.619  20.234  0.00  0.00    +0.000 HD
BRANCH  59  62
ATOM     62  C   UNL     1     -15.691   5.459  20.624  0.00  0.00    +0.000 C 
ATOM     63  H   UNL     1     -16.415   5.805  19.874  0.00  0.00    +0.000 HD
ATOM     64  H   UNL     1     -16.298   5.033  21.431  0.00  0.00    +0.000 HD
BRANCH  62  67
ATOM     65  O   UNL     1     -13.847   6.954  20.582  0.00  0.00    +0.000 OA
ATOM     66  O   UNL     1     -15.579   7.354  22.018  0.00  0.00    +0.000 OA
ATOM     67  C   UNL     1     -14.966   6.714  21.115  0.00  0.00    +0.000 C 
ENDBRANCH  62  67
ENDBRANCH  59  62
ENDBRANCH  53  59
ENDBRANCH   6  53
TORSDOF 9
ENDMDL
MODEL 6
REMARK VINA RESULT:      -7.0     10.236     14.502
REMARK  Name = 9548661
REMARK  9 active torsions:
REMARK  status: ('A' for Active; 'I' for Inactive)
REMARK    1  A    between atoms: O_1  and  C_11
REMARK    2  A    between atoms: O_2  and  C_24
REMARK    3  A    between atoms: C_5  and  C_19
REMARK    4  A    between atoms: C_9  and  C_22
REMARK    5  A    between atoms: C_10  and  C_20
REMARK    6  A    between atoms: C_20  and  C_25
REMARK    7  A    between atoms: C_20  and  C_26
REMARK    8  A    between atoms: C_25  and  C_27
REMARK    9  A    between atoms: C_27  and  C_28
REMARK                            x       y       z     vdW  Elec       q    Type
REMARK                         _______ _______ _______ _____ _____    ______ ____
ROOT
ATOM      1  C   UNL     1     -13.772   0.371  13.023  0.00  0.00    +0.000 C 
ATOM      2  C   UNL     1     -13.974   0.111  14.535  0.00  0.00    +0.000 C 
ATOM      3  C   UNL     1     -13.105   1.014  15.418  0.00  0.00    +0.000 C 
ATOM      4  C   UNL     1     -13.456   2.507  15.119  0.00  0.00    +0.000 C 
ATOM      5  C   UNL     1     -12.631   3.499  16.025  0.00  0.00    +0.000 C 
ATOM      6  C   UNL     1     -14.717  -0.726  12.465  0.00  0.00    +0.000 C 
ATOM      7  C   UNL     1     -14.171   1.829  12.719  0.00  0.00    +0.000 C 
ATOM      8  C   UNL     1     -13.380   2.822  13.597  0.00  0.00    +0.000 C 
ATOM      9  C   UNL     1     -12.837   3.121  17.531  0.00  0.00    +0.000 C 
ATOM     10  C   UNL     1     -13.829  -1.403  14.665  0.00  0.00    +0.000 C 
ATOM     11  C   UNL     1     -13.293   0.684  16.905  0.00  0.00    +0.000 C 
ATOM     12  C   UNL     1     -14.421  -1.955  13.356  0.00  0.00    +0.000 C 
ATOM     13  C   UNL     1     -12.525   1.642  17.810  0.00  0.00    +0.000 C 
ATOM     14  C   UNL     1     -13.058   4.983  15.827  0.00  0.00    +0.000 C 
ATOM     15  C   UNL     1     -14.249   3.473  18.046  0.00  0.00    +0.000 C 
ATOM     16  C   UNL     1     -14.465   5.294  16.321  0.00  0.00    +0.000 C 
ATOM     17  C   UNL     1     -14.616   4.932  17.793  0.00  0.00    +0.000 C 
ATOM     18  H   UNL     1     -15.022   0.334  14.795  0.00  0.00    +0.000 HD
ATOM     19  H   UNL     1     -12.053   0.829  15.181  0.00  0.00    +0.000 HD
ATOM     20  H   UNL     1     -14.514   2.629  15.386  0.00  0.00    +0.000 HD
ATOM     21  H   UNL     1     -15.758  -0.435  12.669  0.00  0.00    +0.000 HD
ATOM     22  H   UNL     1     -13.978   2.116  11.687  0.00  0.00    +0.000 HD
ATOM     23  H   UNL     1     -13.787   3.824  13.421  0.00  0.00    +0.000 HD
ATOM     24  H   UNL     1     -12.337   2.841  13.267  0.00  0.00    +0.000 HD
ATOM     25  H   UNL     1     -12.134   3.716  18.132  0.00  0.00    +0.000 HD
ATOM     26  H   UNL     1     -14.366  -1.791  15.537  0.00  0.00    +0.000 HD
ATOM     27  H   UNL     1     -12.779  -1.700  14.764  0.00  0.00    +0.000 HD
ATOM     28  H   UNL     1     -12.946  -0.337  17.107  0.00  0.00    +0.000 HD
ATOM     29  H   UNL     1     -14.358   0.702  17.163  0.00  0.00    +0.000 HD
ATOM     30  H   UNL     1     -13.706  -2.643  12.893  0.00  0.00    +0.000 HD
ATOM     31  H   UNL     1     -15.340  -2.518  13.555  0.00  0.00    +0.000 HD
ATOM     32  H   UNL     1     -12.746   1.404  18.859  0.00  0.00    +0.000 HD
ATOM     33  H   UNL     1     -11.449   1.465  17.686  0.00  0.00    +0.000 HD
ATOM     34  H   UNL     1     -12.966   5.284  14.778  0.00  0.00    +0.000 HD
ATOM     35  H   UNL     1     -12.360   5.632  16.376  0.00  0.00    +0.000 HD
ATOM     36  H   UNL     1     -15.014   2.829  17.595  0.00  0.00    +0.000 HD
ATOM     37  H   UNL     1     -14.312   3.274  19.124  0.00  0.00    +0.000 HD
ATOM     38  H   UNL     1     -14.676   6.363  16.185  0.00  0.00    +0.000 HD
ATOM     39  H   UNL     1     -15.218   4.773  15.720  0.00  0.00    +0.000 HD
ATOM     40  H   UNL     1     -13.979   5.580  18.408  0.00  0.00    +0.000 HD
ENDROOT
BRANCH   1  41
ATOM     41  C   UNL     1     -12.314   0.137  12.542  0.00  0.00    +0.000 C 
ATOM     42  H   UNL     1     -12.131  -0.902  12.250  0.00  0.00    +0.000 HD
ATOM     43  H   UNL     1     -12.073   0.761  11.676  0.00  0.00    +0.000 HD
ATOM     44  H   UNL     1     -11.573   0.380  13.308  0.00  0.00    +0.000 HD
ENDBRANCH   1  41
BRANCH   5  45
ATOM     45  C   UNL     1     -11.119   3.439  15.685  0.00  0.00    +0.000 C 
ATOM     46  H   UNL     1     -10.487   3.871  16.464  0.00  0.00    +0.000 HD
ATOM     47  H   UNL     1     -10.784   2.410  15.522  0.00  0.00    +0.000 HD
ATOM     48  H   UNL     1     -10.907   3.990  14.760  0.00  0.00    +0.000 HD
ENDBRANCH   5  45
BRANCH   7  49
ATOM     49  O   UNL     1     -15.566   2.026  12.955  0.00  0.00    +0.000 OA
ATOM     50  H   UNL     1     -16.044   1.297  12.525  0.00  0.00    +0.000 HD
ENDBRANCH   7  49
BRANCH  17  51
ATOM     51  O   UNL     1     -15.964   5.139  18.201  0.00  0.00    +0.000 OA
ATOM     52  H   UNL     1     -16.462   4.331  17.990  0.00  0.00    +0.000 HD
ENDBRANCH  17  51
BRANCH   6  53
ATOM     53  C   UNL     1     -14.598  -1.030  10.978  0.00  0.00    +0.000 C 
ATOM     54  H   UNL     1     -15.483  -1.580  10.637  0.00  0.00    +0.000 HD
BRANCH  53  55
ATOM     55  C   UNL     1     -13.373  -1.913  10.718  0.00  0.00    +0.000 C 
ATOM     56  H   UNL     1     -13.500  -2.921  11.122  0.00  0.00    +0.000 HD
ATOM     57  H   UNL     1     -12.494  -1.540  11.244  0.00  0.00    +0.000 HD
ATOM     58  H   UNL     1     -13.161  -2.024   9.651  0.00  0.00    +0.000 HD
ENDBRANCH  53  55
BRANCH  53  59
ATOM     59  C   UNL     1     -14.545   0.287  10.171  0.00  0.00    +0.000 C 
ATOM     60  H   UNL     1     -14.239   1.114  10.822  0.00  0.00    +0.000 HD
ATOM     61  H   UNL     1     -13.770   0.203   9.398  0.00  0.00    +0.000 HD
BRANCH  59  62
ATOM     62  C   UNL     1     -15.851   0.678   9.482  0.00  0.00    +0.000 C 
ATOM     63  H   UNL     1     -15.885   1.774   9.420  0.00  0.00    +0.000 HD
ATOM     64  H   UNL     1     -15.876   0.332   8.444  0.00  0.00    +0.000 HD
BRANCH  62  67
ATOM     65  O   UNL     1     -17.430   0.928  11.238  0.00  0.00    +0.000 OA
ATOM     66  O   UNL     1     -17.735  -0.722   9.687  0.00  0.00    +0.000 OA
ATOM     67  C   UNL     1     -17.134   0.262  10.208  0.00  0.00    +0.000 C 
ENDBRANCH  62  67
ENDBRANCH  59  62
ENDBRANCH  53  59
ENDBRANCH   6  53
TORSDOF 9
ENDMDL
MODEL 7
REMARK VINA RESULT:      -6.6      9.002     11.735
REMARK  Name = 9548661
REMARK  9 active torsions:
REMARK  status: ('A' for Active; 'I' for Inactive)
REMARK    1  A    between atoms: O_1  and  C_11
REMARK    2  A    between atoms: O_2  and  C_24
REMARK    3  A    between atoms: C_5  and  C_19
REMARK    4  A    between atoms: C_9  and  C_22
REMARK    5  A    between atoms: C_10  and  C_20
REMARK    6  A    between atoms: C_20  and  C_25
REMARK    7  A    between atoms: C_20  and  C_26
REMARK    8  A    between atoms: C_25  and  C_27
REMARK    9  A    between atoms: C_27  and  C_28
REMARK                            x       y       z     vdW  Elec       q    Type
REMARK                         _______ _______ _______ _____ _____    ______ ____
ROOT
ATOM      1  C   UNL     1     -15.869   7.508  20.883  0.00  0.00    +0.000 C 
ATOM      2  C   UNL     1     -16.724   8.718  20.437  0.00  0.00    +0.000 C 
ATOM      3  C   UNL     1     -17.447   9.402  21.603  0.00  0.00    +0.000 C 
ATOM      4  C   UNL     1     -16.386   9.899  22.637  0.00  0.00    +0.000 C 
ATOM      5  C   UNL     1     -17.053  10.655  23.849  0.00  0.00    +0.000 C 
ATOM      6  C   UNL     1     -15.368   7.045  19.489  0.00  0.00    +0.000 C 
ATOM      7  C   UNL     1     -14.786   8.009  21.861  0.00  0.00    +0.000 C 
ATOM      8  C   UNL     1     -15.413   8.759  23.056  0.00  0.00    +0.000 C 
ATOM      9  C   UNL     1     -17.953  11.816  23.305  0.00  0.00    +0.000 C 
ATOM     10  C   UNL     1     -17.555   8.168  19.280  0.00  0.00    +0.000 C 
ATOM     11  C   UNL     1     -18.328  10.558  21.110  0.00  0.00    +0.000 C 
ATOM     12  C   UNL     1     -16.622   7.155  18.592  0.00  0.00    +0.000 C 
ATOM     13  C   UNL     1     -18.970  11.325  22.262  0.00  0.00    +0.000 C 
ATOM     14  C   UNL     1     -16.002  11.263  24.823  0.00  0.00    +0.000 C 
ATOM     15  C   UNL     1     -17.131  12.992  22.735  0.00  0.00    +0.000 C 
ATOM     16  C   UNL     1     -15.189  12.404  24.225  0.00  0.00    +0.000 C 
ATOM     17  C   UNL     1     -16.101  13.519  23.728  0.00  0.00    +0.000 C 
ATOM     18  H   UNL     1     -16.059   9.477  19.992  0.00  0.00    +0.000 HD
ATOM     19  H   UNL     1     -18.112   8.675  22.079  0.00  0.00    +0.000 HD
ATOM     20  H   UNL     1     -15.761  10.628  22.104  0.00  0.00    +0.000 HD
ATOM     21  H   UNL     1     -14.646   7.782  19.109  0.00  0.00    +0.000 HD
ATOM     22  H   UNL     1     -14.192   7.202  22.286  0.00  0.00    +0.000 HD
ATOM     23  H   UNL     1     -14.597   9.187  23.648  0.00  0.00    +0.000 HD
ATOM     24  H   UNL     1     -15.929   8.040  23.699  0.00  0.00    +0.000 HD
ATOM     25  H   UNL     1     -18.531  12.224  24.147  0.00  0.00    +0.000 HD
ATOM     26  H   UNL     1     -17.863   8.957  18.586  0.00  0.00    +0.000 HD
ATOM     27  H   UNL     1     -18.462   7.669  19.637  0.00  0.00    +0.000 HD
ATOM     28  H   UNL     1     -19.126  10.169  20.465  0.00  0.00    +0.000 HD
ATOM     29  H   UNL     1     -17.739  11.242  20.489  0.00  0.00    +0.000 HD
ATOM     30  H   UNL     1     -17.141   6.196  18.481  0.00  0.00    +0.000 HD
ATOM     31  H   UNL     1     -16.351   7.500  17.588  0.00  0.00    +0.000 HD
ATOM     32  H   UNL     1     -19.533  12.177  21.858  0.00  0.00    +0.000 HD
ATOM     33  H   UNL     1     -19.714  10.682  22.749  0.00  0.00    +0.000 HD
ATOM     34  H   UNL     1     -15.323  10.493  25.203  0.00  0.00    +0.000 HD
ATOM     35  H   UNL     1     -16.521  11.653  25.710  0.00  0.00    +0.000 HD
ATOM     36  H   UNL     1     -16.621  12.712  21.805  0.00  0.00    +0.000 HD
ATOM     37  H   UNL     1     -17.803  13.812  22.452  0.00  0.00    +0.000 HD
ATOM     38  H   UNL     1     -14.503  12.805  24.982  0.00  0.00    +0.000 HD
ATOM     39  H   UNL     1     -14.546  12.046  23.414  0.00  0.00    +0.000 HD
ATOM     40  H   UNL     1     -16.617  13.988  24.575  0.00  0.00    +0.000 HD
ENDROOT
BRANCH   1  41
ATOM     41  C   UNL     1     -16.691   6.386  21.572  0.00  0.00    +0.000 C 
ATOM     42  H   UNL     1     -16.064   5.709  22.161  0.00  0.00    +0.000 HD
ATOM     43  H   UNL     1     -17.443   6.800  22.251  0.00  0.00    +0.000 HD
ATOM     44  H   UNL     1     -17.236   5.763  20.858  0.00  0.00    +0.000 HD
ENDBRANCH   1  41
BRANCH   5  45
ATOM     45  C   UNL     1     -17.919   9.691  24.700  0.00  0.00    +0.000 C 
ATOM     46  H   UNL     1     -17.375   8.801  25.025  0.00  0.00    +0.000 HD
ATOM     47  H   UNL     1     -18.308  10.185  25.596  0.00  0.00    +0.000 HD
ATOM     48  H   UNL     1     -18.789   9.342  24.129  0.00  0.00    +0.000 HD
ENDBRANCH   5  45
BRANCH   7  49
ATOM     49  O   UNL     1     -13.880   8.891  21.196  0.00  0.00    +0.000 OA
ATOM     50  H   UNL     1     -13.532   8.426  20.417  0.00  0.00    +0.000 HD
ENDBRANCH   7  49
BRANCH  17  51
ATOM     51  O   UNL     1     -15.323  14.523  23.086  0.00  0.00    +0.000 OA
ATOM     52  H   UNL     1     -14.665  14.073  22.529  0.00  0.00    +0.000 HD
ENDBRANCH  17  51
BRANCH   6  53
ATOM     53  C   UNL     1     -14.712   5.672  19.427  0.00  0.00    +0.000 C 
ATOM     54  H   UNL     1     -15.337   4.936  19.947  0.00  0.00    +0.000 HD
BRANCH  53  55
ATOM     55  C   UNL     1     -13.352   5.707  20.132  0.00  0.00    +0.000 C 
ATOM     56  H   UNL     1     -12.993   6.728  20.282  0.00  0.00    +0.000 HD
ATOM     57  H   UNL     1     -12.573   5.254  19.519  0.00  0.00    +0.000 HD
ATOM     58  H   UNL     1     -13.384   5.235  21.118  0.00  0.00    +0.000 HD
ENDBRANCH  53  55
BRANCH  53  59
ATOM     59  C   UNL     1     -14.593   5.209  17.959  0.00  0.00    +0.000 C 
ATOM     60  H   UNL     1     -15.555   4.816  17.610  0.00  0.00    +0.000 HD
ATOM     61  H   UNL     1     -14.370   6.078  17.325  0.00  0.00    +0.000 HD
BRANCH  59  62
ATOM     62  C   UNL     1     -13.521   4.152  17.698  0.00  0.00    +0.000 C 
ATOM     63  H   UNL     1     -12.740   4.269  18.461  0.00  0.00    +0.000 HD
ATOM     64  H   UNL     1     -13.913   3.140  17.842  0.00  0.00    +0.000 HD
BRANCH  62  67
ATOM     65  O   UNL     1     -11.690   3.669  16.265  0.00  0.00    +0.000 OA
ATOM     66  O   UNL     1     -13.422   4.936  15.479  0.00  0.00    +0.000 OA
ATOM     67  C   UNL     1     -12.805   4.254  16.348  0.00  0.00    +0.000 C 
ENDBRANCH  62  67
ENDBRANCH  59  62
ENDBRANCH  53  59
ENDBRANCH   6  53
TORSDOF 9
ENDMDL
MODEL 8
REMARK VINA RESULT:      -6.4     17.072     20.925
REMARK  Name = 9548661
REMARK  9 active torsions:
REMARK  status: ('A' for Active; 'I' for Inactive)
REMARK    1  A    between atoms: O_1  and  C_11
REMARK    2  A    between atoms: O_2  and  C_24
REMARK    3  A    between atoms: C_5  and  C_19
REMARK    4  A    between atoms: C_9  and  C_22
REMARK    5  A    between atoms: C_10  and  C_20
REMARK    6  A    between atoms: C_20  and  C_25
REMARK    7  A    between atoms: C_20  and  C_26
REMARK    8  A    between atoms: C_25  and  C_27
REMARK    9  A    between atoms: C_27  and  C_28
REMARK                            x       y       z     vdW  Elec       q    Type
REMARK                         _______ _______ _______ _____ _____    ______ ____
ROOT
ATOM      1  C   UNL     1     -24.243   2.870  16.172  0.00  0.00    +0.000 C 
ATOM      2  C   UNL     1     -25.336   1.831  15.826  0.00  0.00    +0.000 C 
ATOM      3  C   UNL     1     -26.018   2.104  14.480  0.00  0.00    +0.000 C 
ATOM      4  C   UNL     1     -24.938   2.083  13.350  0.00  0.00    +0.000 C 
ATOM      5  C   UNL     1     -25.572   2.313  11.926  0.00  0.00    +0.000 C 
ATOM      6  C   UNL     1     -23.843   2.337  17.572  0.00  0.00    +0.000 C 
ATOM      7  C   UNL     1     -23.149   2.809  15.085  0.00  0.00    +0.000 C 
ATOM      8  C   UNL     1     -23.745   3.027  13.678  0.00  0.00    +0.000 C 
ATOM      9  C   UNL     1     -26.712   1.266  11.688  0.00  0.00    +0.000 C 
ATOM     10  C   UNL     1     -26.196   1.776  17.087  0.00  0.00    +0.000 C 
ATOM     11  C   UNL     1     -27.133   1.086  14.204  0.00  0.00    +0.000 C 
ATOM     12  C   UNL     1     -25.196   1.995  18.237  0.00  0.00    +0.000 C 
ATOM     13  C   UNL     1     -27.751   1.268  12.822  0.00  0.00    +0.000 C 
ATOM     14  C   UNL     1     -24.527   2.171  10.779  0.00  0.00    +0.000 C 
ATOM     15  C   UNL     1     -26.173  -0.163  11.463  0.00  0.00    +0.000 C 
ATOM     16  C   UNL     1     -23.995   0.756  10.597  0.00  0.00    +0.000 C 
ATOM     17  C   UNL     1     -25.134  -0.225  10.349  0.00  0.00    +0.000 C 
ATOM     18  H   UNL     1     -24.866   0.836  15.743  0.00  0.00    +0.000 HD
ATOM     19  H   UNL     1     -26.489   3.091  14.519  0.00  0.00    +0.000 HD
ATOM     20  H   UNL     1     -24.513   1.070  13.356  0.00  0.00    +0.000 HD
ATOM     21  H   UNL     1     -23.305   1.385  17.450  0.00  0.00    +0.000 HD
ATOM     22  H   UNL     1     -22.382   3.570  15.212  0.00  0.00    +0.000 HD
ATOM     23  H   UNL     1     -22.947   2.858  12.946  0.00  0.00    +0.000 HD
ATOM     24  H   UNL     1     -24.052   4.072  13.576  0.00  0.00    +0.000 HD
ATOM     25  H   UNL     1     -27.244   1.543  10.766  0.00  0.00    +0.000 HD
ATOM     26  H   UNL     1     -26.713   0.817  17.188  0.00  0.00    +0.000 HD
ATOM     27  H   UNL     1     -26.958   2.564  17.089  0.00  0.00    +0.000 HD
ATOM     28  H   UNL     1     -27.926   1.190  14.955  0.00  0.00    +0.000 HD
ATOM     29  H   UNL     1     -26.746   0.066  14.308  0.00  0.00    +0.000 HD
ATOM     30  H   UNL     1     -25.557   2.799  18.887  0.00  0.00    +0.000 HD
ATOM     31  H   UNL     1     -25.110   1.090  18.849  0.00  0.00    +0.000 HD
ATOM     32  H   UNL     1     -28.493   0.477  12.651  0.00  0.00    +0.000 HD
ATOM     33  H   UNL     1     -28.312   2.211  12.803  0.00  0.00    +0.000 HD
ATOM     34  H   UNL     1     -23.688   2.860  10.922  0.00  0.00    +0.000 HD
ATOM     35  H   UNL     1     -24.994   2.477   9.832  0.00  0.00    +0.000 HD
ATOM     36  H   UNL     1     -25.739  -0.578  12.381  0.00  0.00    +0.000 HD
ATOM     37  H   UNL     1     -27.002  -0.837  11.213  0.00  0.00    +0.000 HD
ATOM     38  H   UNL     1     -23.300   0.730   9.749  0.00  0.00    +0.000 HD
ATOM     39  H   UNL     1     -23.403   0.443  11.465  0.00  0.00    +0.000 HD
ATOM     40  H   UNL     1     -25.616  -0.006   9.388  0.00  0.00    +0.000 HD
ENDROOT
BRANCH   1  41
ATOM     41  C   UNL     1     -24.776   4.324  16.269  0.00  0.00    +0.000 C 
ATOM     42  H   UNL     1     -25.857   4.364  16.441  0.00  0.00    +0.000 HD
ATOM     43  H   UNL     1     -24.301   4.872  17.088  0.00  0.00    +0.000 HD
ATOM     44  H   UNL     1     -24.585   4.905  15.363  0.00  0.00    +0.000 HD
ENDBRANCH   1  41
BRANCH   5  45
ATOM     45  C   UNL     1     -26.155   3.744  11.799  0.00  0.00    +0.000 C 
ATOM     46  H   UNL     1     -26.756   4.040  12.662  0.00  0.00    +0.000 HD
ATOM     47  H   UNL     1     -25.364   4.491  11.678  0.00  0.00    +0.000 HD
ATOM     48  H   UNL     1     -26.803   3.824  10.917  0.00  0.00    +0.000 HD
ENDBRANCH   5  45
BRANCH   7  49
ATOM     49  O   UNL     1     -22.490   1.542  15.108  0.00  0.00    +0.000 OA
ATOM     50  H   UNL     1     -23.160   0.858  14.941  0.00  0.00    +0.000 HD
ENDBRANCH   7  49
BRANCH  17  51
ATOM     51  O   UNL     1     -24.618  -1.550  10.282  0.00  0.00    +0.000 OA
ATOM     52  H   UNL     1     -23.716  -1.496   9.923  0.00  0.00    +0.000 HD
ENDBRANCH  17  51
BRANCH   6  53
ATOM     53  C   UNL     1     -22.979   3.256  18.425  0.00  0.00    +0.000 C 
ATOM     54  H   UNL     1     -23.192   4.303  18.180  0.00  0.00    +0.000 HD
BRANCH  53  55
ATOM     55  C   UNL     1     -21.496   3.003  18.134  0.00  0.00    +0.000 C 
ATOM     56  H   UNL     1     -20.980   3.910  17.811  0.00  0.00    +0.000 HD
ATOM     57  H   UNL     1     -21.365   2.324  17.290  0.00  0.00    +0.000 HD
ATOM     58  H   UNL     1     -20.960   2.628  19.011  0.00  0.00    +0.000 HD
ENDBRANCH  53  55
BRANCH  53  59
ATOM     59  C   UNL     1     -23.318   3.064  19.920  0.00  0.00    +0.000 C 
ATOM     60  H   UNL     1     -23.524   4.034  20.386  0.00  0.00    +0.000 HD
ATOM     61  H   UNL     1     -24.245   2.480  20.006  0.00  0.00    +0.000 HD
BRANCH  59  62
ATOM     62  C   UNL     1     -22.243   2.356  20.743  0.00  0.00    +0.000 C 
ATOM     63  H   UNL     1     -21.523   1.909  20.044  0.00  0.00    +0.000 HD
ATOM     64  H   UNL     1     -21.660   3.067  21.337  0.00  0.00    +0.000 HD
BRANCH  62  67
ATOM     65  O   UNL     1     -22.571   1.352  22.869  0.00  0.00    +0.000 OA
ATOM     66  O   UNL     1     -23.233   0.234  20.990  0.00  0.00    +0.000 OA
ATOM     67  C   UNL     1     -22.734   1.207  21.627  0.00  0.00    +0.000 C 
ENDBRANCH  62  67
ENDBRANCH  59  62
ENDBRANCH  53  59
ENDBRANCH   6  53
TORSDOF 9
ENDMDL
MODEL 9
REMARK VINA RESULT:      -6.2      2.115      7.193
REMARK  Name = 9548661
REMARK  9 active torsions:
REMARK  status: ('A' for Active; 'I' for Inactive)
REMARK    1  A    between atoms: O_1  and  C_11
REMARK    2  A    between atoms: O_2  and  C_24
REMARK    3  A    between atoms: C_5  and  C_19
REMARK    4  A    between atoms: C_9  and  C_22
REMARK    5  A    between atoms: C_10  and  C_20
REMARK    6  A    between atoms: C_20  and  C_25
REMARK    7  A    between atoms: C_20  and  C_26
REMARK    8  A    between atoms: C_25  and  C_27
REMARK    9  A    between atoms: C_27  and  C_28
REMARK                            x       y       z     vdW  Elec       q    Type
REMARK                         _______ _______ _______ _____ _____    ______ ____
ROOT
ATOM      1  C   UNL     1      -8.184   5.910  22.864  0.00  0.00    +0.000 C 
ATOM      2  C   UNL     1      -7.459   4.627  23.338  0.00  0.00    +0.000 C 
ATOM      3  C   UNL     1      -6.065   4.465  22.720  0.00  0.00    +0.000 C 
ATOM      4  C   UNL     1      -5.191   5.701  23.107  0.00  0.00    +0.000 C 
ATOM      5  C   UNL     1      -3.724   5.584  22.543  0.00  0.00    +0.000 C 
ATOM      6  C   UNL     1      -9.531   5.709  23.607  0.00  0.00    +0.000 C 
ATOM      7  C   UNL     1      -7.348   7.132  23.295  0.00  0.00    +0.000 C 
ATOM      8  C   UNL     1      -5.903   7.040  22.759  0.00  0.00    +0.000 C 
ATOM      9  C   UNL     1      -3.092   4.230  23.011  0.00  0.00    +0.000 C 
ATOM     10  C   UNL     1      -8.493   3.525  23.119  0.00  0.00    +0.000 C 
ATOM     11  C   UNL     1      -5.407   3.154  23.170  0.00  0.00    +0.000 C 
ATOM     12  C   UNL     1      -9.842   4.208  23.407  0.00  0.00    +0.000 C 
ATOM     13  C   UNL     1      -3.976   3.022  22.659  0.00  0.00    +0.000 C 
ATOM     14  C   UNL     1      -2.806   6.747  23.023  0.00  0.00    +0.000 C 
ATOM     15  C   UNL     1      -2.752   4.219  24.517  0.00  0.00    +0.000 C 
ATOM     16  C   UNL     1      -2.509   6.725  24.517  0.00  0.00    +0.000 C 
ATOM     17  C   UNL     1      -1.878   5.400  24.926  0.00  0.00    +0.000 C 
ATOM     18  H   UNL     1      -7.313   4.686  24.430  0.00  0.00    +0.000 HD
ATOM     19  H   UNL     1      -6.168   4.413  21.632  0.00  0.00    +0.000 HD
ATOM     20  H   UNL     1      -5.118   5.690  24.203  0.00  0.00    +0.000 HD
ATOM     21  H   UNL     1      -9.368   5.854  24.685  0.00  0.00    +0.000 HD
ATOM     22  H   UNL     1      -7.750   8.073  22.926  0.00  0.00    +0.000 HD
ATOM     23  H   UNL     1      -5.332   7.869  23.191  0.00  0.00    +0.000 HD
ATOM     24  H   UNL     1      -5.912   7.192  21.676  0.00  0.00    +0.000 HD
ATOM     25  H   UNL     1      -2.139   4.095  22.479  0.00  0.00    +0.000 HD
ATOM     26  H   UNL     1      -8.329   2.673  23.787  0.00  0.00    +0.000 HD
ATOM     27  H   UNL     1      -8.468   3.148  22.091  0.00  0.00    +0.000 HD
ATOM     28  H   UNL     1      -5.987   2.299  22.801  0.00  0.00    +0.000 HD
ATOM     29  H   UNL     1      -5.420   3.082  24.264  0.00  0.00    +0.000 HD
ATOM     30  H   UNL     1     -10.527   4.031  22.571  0.00  0.00    +0.000 HD
ATOM     31  H   UNL     1     -10.304   3.785  24.306  0.00  0.00    +0.000 HD
ATOM     32  H   UNL     1      -3.532   2.103  23.063  0.00  0.00    +0.000 HD
ATOM     33  H   UNL     1      -3.997   2.888  21.570  0.00  0.00    +0.000 HD
ATOM     34  H   UNL     1      -3.226   7.721  22.750  0.00  0.00    +0.000 HD
ATOM     35  H   UNL     1      -1.846   6.687  22.490  0.00  0.00    +0.000 HD
ATOM     36  H   UNL     1      -3.659   4.216  25.134  0.00  0.00    +0.000 HD
ATOM     37  H   UNL     1      -2.232   3.288  24.774  0.00  0.00    +0.000 HD
ATOM     38  H   UNL     1      -1.827   7.547  24.769  0.00  0.00    +0.000 HD
ATOM     39  H   UNL     1      -3.416   6.913  25.102  0.00  0.00    +0.000 HD
ATOM     40  H   UNL     1      -0.887   5.297  24.465  0.00  0.00    +0.000 HD
ENDROOT
BRANCH   1  41
ATOM     41  C   UNL     1      -8.406   5.967  21.329  0.00  0.00    +0.000 C 
ATOM     42  H   UNL     1      -8.733   6.955  20.989  0.00  0.00    +0.000 HD
ATOM     43  H   UNL     1      -7.489   5.727  20.782  0.00  0.00    +0.000 HD
ATOM     44  H   UNL     1      -9.160   5.254  20.985  0.00  0.00    +0.000 HD
ENDBRANCH   1  41
BRANCH   5  45
ATOM     45  C   UNL     1      -3.716   5.644  20.993  0.00  0.00    +0.000 C 
ATOM     46  H   UNL     1      -4.233   4.802  20.529  0.00  0.00    +0.000 HD
ATOM     47  H   UNL     1      -4.185   6.563  20.624  0.00  0.00    +0.000 HD
ATOM     48  H   UNL     1      -2.688   5.638  20.609  0.00  0.00    +0.000 HD
ENDBRANCH   5  45
BRANCH   7  49
ATOM     49  O   UNL     1      -7.298   7.228  24.720  0.00  0.00    +0.000 OA
ATOM     50  H   UNL     1      -7.084   8.148  24.947  0.00  0.00    +0.000 HD
ENDBRANCH   7  49
BRANCH  17  51
ATOM     51  O   UNL     1      -1.703   5.369  26.338  0.00  0.00    +0.000 OA
ATOM     52  H   UNL     1      -1.917   4.471  26.641  0.00  0.00    +0.000 HD
ENDBRANCH  17  51
BRANCH   6  53
ATOM     53  C   UNL     1     -10.680   6.614  23.182  0.00  0.00    +0.000 C 
ATOM     54  H   UNL     1     -11.409   6.042  22.597  0.00  0.00    +0.000 HD
BRANCH  53  55
ATOM     55  C   UNL     1     -10.155   7.745  22.290  0.00  0.00    +0.000 C 
ATOM     56  H   UNL     1     -10.894   8.540  22.158  0.00  0.00    +0.000 HD
ATOM     57  H   UNL     1      -9.973   7.399  21.273  0.00  0.00    +0.000 HD
ATOM     58  H   UNL     1      -9.256   8.213  22.701  0.00  0.00    +0.000 HD
ENDBRANCH  53  55
BRANCH  53  59
ATOM     59  C   UNL     1     -11.419   7.151  24.427  0.00  0.00    +0.000 C 
ATOM     60  H   UNL     1     -11.253   8.230  24.526  0.00  0.00    +0.000 HD
ATOM     61  H   UNL     1     -12.501   7.021  24.286  0.00  0.00    +0.000 HD
BRANCH  59  62
ATOM     62  C   UNL     1     -11.035   6.484  25.746  0.00  0.00    +0.000 C 
ATOM     63  H   UNL     1     -11.939   6.021  26.165  0.00  0.00    +0.000 HD
ATOM     64  H   UNL     1     -10.336   5.656  25.589  0.00  0.00    +0.000 HD
BRANCH  62  67
ATOM     65  O   UNL     1     -11.372   8.098  27.456  0.00  0.00    +0.000 OA
ATOM     66  O   UNL     1      -9.247   7.417  26.963  0.00  0.00    +0.000 OA
ATOM     67  C   UNL     1     -10.506   7.423  26.834  0.00  0.00    +0.000 C 
ENDBRANCH  62  67
ENDBRANCH  59  62
ENDBRANCH  53  59
ENDBRANCH   6  53
TORSDOF 9
ENDMDL
