MODEL 1
REMARK VINA RESULT:     -11.0      0.000      0.000
REMARK  Name = 9548661
REMARK  9 active torsions:
REMARK  status: ('A' for Active; 'I' for Inactive)
REMARK    1  A    between atoms: O_1  and  C_11
REMARK    2  A    between atoms: O_2  and  C_24
REMARK    3  A    between atoms: C_5  and  C_19
REMARK    4  A    between atoms: C_9  and  C_22
REMARK    5  A    between atoms: C_10  and  C_20
REMARK    6  A    between atoms: C_20  and  C_25
REMARK    7  A    between atoms: C_20  and  C_26
REMARK    8  A    between atoms: C_25  and  C_27
REMARK    9  A    between atoms: C_27  and  C_28
REMARK                            x       y       z     vdW  Elec       q    Type
REMARK                         _______ _______ _______ _____ _____    ______ ____
ROOT
ATOM      1  C   UNL     1      -2.482   5.503  23.387  0.00  0.00    +0.000 C 
ATOM      2  C   UNL     1      -3.757   4.796  23.905  0.00  0.00    +0.000 C 
ATOM      3  C   UNL     1      -5.050   5.453  23.406  0.00  0.00    +0.000 C 
ATOM      4  C   UNL     1      -5.065   5.423  21.844  0.00  0.00    +0.000 C 
ATOM      5  C   UNL     1      -6.389   6.044  21.256  0.00  0.00    +0.000 C 
ATOM      6  C   UNL     1      -1.419   4.644  24.122  0.00  0.00    +0.000 C 
ATOM      7  C   UNL     1      -2.470   5.424  21.847  0.00  0.00    +0.000 C 
ATOM      8  C   UNL     1      -3.759   6.022  21.245  0.00  0.00    +0.000 C 
ATOM      9  C   UNL     1      -7.627   5.319  21.884  0.00  0.00    +0.000 C 
ATOM     10  C   UNL     1      -3.524   4.683  25.410  0.00  0.00    +0.000 C 
ATOM     11  C   UNL     1      -6.288   4.758  23.989  0.00  0.00    +0.000 C 
ATOM     12  C   UNL     1      -2.005   4.469  25.542  0.00  0.00    +0.000 C 
ATOM     13  C   UNL     1      -7.587   5.322  23.421  0.00  0.00    +0.000 C 
ATOM     14  C   UNL     1      -6.474   5.909  19.707  0.00  0.00    +0.000 C 
ATOM     15  C   UNL     1      -7.805   3.879  21.358  0.00  0.00    +0.000 C 
ATOM     16  C   UNL     1      -6.624   4.475  19.216  0.00  0.00    +0.000 C 
ATOM     17  C   UNL     1      -7.849   3.815  19.835  0.00  0.00    +0.000 C 
ATOM     18  H   UNL     1      -3.767   3.760  23.526  0.00  0.00    +0.000 HD
ATOM     19  H   UNL     1      -5.073   6.490  23.754  0.00  0.00    +0.000 HD
ATOM     20  H   UNL     1      -5.051   4.362  21.560  0.00  0.00    +0.000 HD
ATOM     21  H   UNL     1      -1.397   3.642  23.668  0.00  0.00    +0.000 HD
ATOM     22  H   UNL     1      -1.643   5.973  21.401  0.00  0.00    +0.000 HD
ATOM     23  H   UNL     1      -3.744   5.833  20.166  0.00  0.00    +0.000 HD
ATOM     24  H   UNL     1      -3.747   7.108  21.377  0.00  0.00    +0.000 HD
ATOM     25  H   UNL     1      -8.532   5.869  21.587  0.00  0.00    +0.000 HD
ATOM     26  H   UNL     1      -4.082   3.849  25.848  0.00  0.00    +0.000 HD
ATOM     27  H   UNL     1      -3.828   5.596  25.934  0.00  0.00    +0.000 HD
ATOM     28  H   UNL     1      -6.305   4.880  25.079  0.00  0.00    +0.000 HD
ATOM     29  H   UNL     1      -6.237   3.680  23.802  0.00  0.00    +0.000 HD
ATOM     30  H   UNL     1      -1.595   5.193  26.255  0.00  0.00    +0.000 HD
ATOM     31  H   UNL     1      -1.790   3.467  25.930  0.00  0.00    +0.000 HD
ATOM     32  H   UNL     1      -8.433   4.747  23.818  0.00  0.00    +0.000 HD
ATOM     33  H   UNL     1      -7.723   6.346  23.789  0.00  0.00    +0.000 HD
ATOM     34  H   UNL     1      -5.607   6.371  19.222  0.00  0.00    +0.000 HD
ATOM     35  H   UNL     1      -7.343   6.478  19.346  0.00  0.00    +0.000 HD
ATOM     36  H   UNL     1      -7.009   3.218  21.721  0.00  0.00    +0.000 HD
ATOM     37  H   UNL     1      -8.733   3.450  21.758  0.00  0.00    +0.000 HD
ATOM     38  H   UNL     1      -6.717   4.467  18.123  0.00  0.00    +0.000 HD
ATOM     39  H   UNL     1      -5.723   3.889  19.433  0.00  0.00    +0.000 HD
ATOM     40  H   UNL     1      -8.762   4.306  19.476  0.00  0.00    +0.000 HD
ENDROOT
BRANCH   1  41
ATOM     41  C   UNL     1      -2.379   6.991  23.817  0.00  0.00    +0.000 C 
ATOM     42  H   UNL     1      -1.725   7.133  24.684  0.00  0.00    +0.000 HD
ATOM     43  H   UNL     1      -1.980   7.614  23.010  0.00  0.00    +0.000 HD
ATOM     44  H   UNL     1      -3.347   7.421  24.084  0.00  0.00    +0.000 HD
ENDBRANCH   1  41
BRANCH   5  45
ATOM     45  C   UNL     1      -6.476   7.563  21.559  0.00  0.00    +0.000 C 
ATOM     46  H   UNL     1      -6.759   8.158  20.688  0.00  0.00    +0.000 HD
ATOM     47  H   UNL     1      -7.201   7.773  22.351  0.00  0.00    +0.000 HD
ATOM     48  H   UNL     1      -5.508   7.946  21.906  0.00  0.00    +0.000 HD
ENDBRANCH   5  45
BRANCH   7  49
ATOM     49  O   UNL     1      -2.354   4.067  21.415  0.00  0.00    +0.000 OA
ATOM     50  H   UNL     1      -1.569   4.004  20.845  0.00  0.00    +0.000 HD
ENDBRANCH   7  49
BRANCH  17  51
ATOM     51  O   UNL     1      -7.908   2.449  19.439  0.00  0.00    +0.000 OA
ATOM     52  H   UNL     1      -8.312   2.417  18.555  0.00  0.00    +0.000 HD
ENDBRANCH  17  51
BRANCH   6  53
ATOM     53  C   UNL     1       0.003   5.187  24.131  0.00  0.00    +0.000 C 
ATOM     54  H   UNL     1       0.175   5.798  23.237  0.00  0.00    +0.000 HD
BRANCH  53  55
ATOM     55  C   UNL     1       1.007   4.030  24.102  0.00  0.00    +0.000 C 
ATOM     56  H   UNL     1       1.818   4.171  24.820  0.00  0.00    +0.000 HD
ATOM     57  H   UNL     1       1.526   3.976  23.144  0.00  0.00    +0.000 HD
ATOM     58  H   UNL     1       0.539   3.069  24.336  0.00  0.00    +0.000 HD
ENDBRANCH  53  55
BRANCH  53  59
ATOM     59  C   UNL     1       0.211   6.105  25.355  0.00  0.00    +0.000 C 
ATOM     60  H   UNL     1      -0.716   6.645  25.582  0.00  0.00    +0.000 HD
ATOM     61  H   UNL     1       0.427   5.486  26.236  0.00  0.00    +0.000 HD
BRANCH  59  62
ATOM     62  C   UNL     1       1.338   7.127  25.214  0.00  0.00    +0.000 C 
ATOM     63  H   UNL     1       1.687   7.385  26.223  0.00  0.00    +0.000 HD
ATOM     64  H   UNL     1       2.210   6.696  24.712  0.00  0.00    +0.000 HD
BRANCH  62  67
ATOM     65  O   UNL     1       0.803   9.438  25.330  0.00  0.00    +0.000 OA
ATOM     66  O   UNL     1       0.811   8.392  23.299  0.00  0.00    +0.000 OA
ATOM     67  C   UNL     1       0.951   8.454  24.555  0.00  0.00    +0.000 C 
ENDBRANCH  62  67
ENDBRANCH  59  62
ENDBRANCH  53  59
ENDBRANCH   6  53
TORSDOF 9
BEGIN_RES LEU A  10
REMARK  2 active torsions:
REMARK  status: ('A' for Active; 'I' for Inactive)
REMARK    1  A    between atoms: CA   and  CB  
REMARK    2  A    between atoms: CB   and  CG  
ROOT
ATOM      1  CA  LEU A  10     -10.775  -4.871   5.898  1.00 25.14     0.177 C 
ENDROOT
BRANCH   1   2
ATOM      2  CB  LEU A  10     -12.191  -4.387   6.226  1.00 17.87     0.038 C 
BRANCH   2   3
ATOM      3  CG  LEU A  10     -12.366  -2.868   6.184  1.00 24.95    -0.020 C 
ATOM      4  CD2 LEU A  10     -12.802  -2.391   7.528  1.00 26.38     0.009 C 
ATOM      5  CD1 LEU A  10     -13.374  -2.466   5.121  1.00 28.12     0.009 C 
ENDBRANCH   2   3
ENDBRANCH   1   2
END_RES LEU A  10
BEGIN_RES CYS A  12
REMARK  2 active torsions:
REMARK  status: ('A' for Active; 'I' for Inactive)
REMARK    3  A    between atoms: CA   and  CB  
REMARK    4  A    between atoms: CB   and  SG  
ROOT
ATOM      6  CA  CYS A  12      -8.555   0.470   8.750  1.00 23.16     0.185 C 
ENDROOT
BRANCH   6   7
ATOM      7  CB  CYS A  12      -9.828   0.763   9.555  1.00 20.43     0.105 C 
BRANCH   7   8
ATOM      8  SG  CYS A  12     -10.982   1.961   8.819  1.00 24.64    -0.180 SA
ATOM      9  H04 CYS A  12     -12.127   1.343   8.501  1.00 24.64     0.101 HD
ENDBRANCH   7   8
ENDBRANCH   6   7
END_RES CYS A  12
BEGIN_RES GLN A  14
REMARK  3 active torsions:
REMARK  status: ('A' for Active; 'I' for Inactive)
REMARK    5  A    between atoms: CA   and  CB  
REMARK    6  A    between atoms: CB   and  CG  
REMARK    7  A    between atoms: CG   and  CD  
REMARK       I    between atoms: CD   and  NE2 
ROOT
ATOM     10  CA  GLN A  14      -4.645   5.402  11.377  1.00 10.43     0.177 C 
ENDROOT
BRANCH  10  11
ATOM     11  CB  GLN A  14      -5.541   5.549  12.608  1.00 14.45     0.044 C 
BRANCH  11  12
ATOM     12  CG  GLN A  14      -6.703   6.496  12.416  1.00 13.74     0.105 C 
BRANCH  12  13
ATOM     13  CD  GLN A  14      -7.939   5.796  11.903  1.00 16.29     0.215 C 
ATOM     14  NE2 GLN A  14      -8.145   5.847  10.605  1.00  8.57    -0.370 N 
ATOM     15  H06 GLN A  14      -8.955   5.395  10.204  1.00  8.57     0.159 HD
ATOM     16  H07 GLN A  14      -7.494   6.337  10.009  1.00  8.57     0.159 HD
ATOM     17  OE1 GLN A  14      -8.696   5.215  12.665  1.00 23.55    -0.274 OA
ENDBRANCH  12  13
ENDBRANCH  11  12
ENDBRANCH  10  11
END_RES GLN A  14
BEGIN_RES SER A  16
REMARK  2 active torsions:
REMARK  status: ('A' for Active; 'I' for Inactive)
REMARK    8  A    between atoms: CA   and  CB  
REMARK    9  A    between atoms: CB   and  OG  
ROOT
ATOM     18  CA  SER A  16      -1.305  10.019  14.282  1.00  2.34     0.200 C 
ENDROOT
BRANCH  18  19
ATOM     19  CB  SER A  16      -2.242   9.935  15.479  1.00  3.12     0.199 C 
BRANCH  19  20
ATOM     20  OG  SER A  16      -3.463   9.320  15.107  1.00  1.00    -0.398 OA
ATOM     21  H04 SER A  16      -4.198   9.835  15.447  1.00  1.00     0.209 HD
ENDBRANCH  19  20
ENDBRANCH  18  19
END_RES SER A  16
BEGIN_RES LEU A  32
REMARK  2 active torsions:
REMARK  status: ('A' for Active; 'I' for Inactive)
REMARK   10  A    between atoms: CA   and  CB  
REMARK   11  A    between atoms: CB   and  CG  
ROOT
ATOM     22  CA  LEU A  32     -10.272  -4.106   1.587  1.00 16.16     0.177 C 
ENDROOT
BRANCH  22  23
ATOM     23  CB  LEU A  32     -11.613  -3.858   0.880  1.00 12.35     0.038 C 
BRANCH  23  24
ATOM     24  CG  LEU A  32     -12.616  -5.003   1.132  1.00  9.77    -0.020 C 
ATOM     25  CD1 LEU A  32     -13.002  -5.050   2.591  1.00  4.35     0.009 C 
ATOM     26  CD2 LEU A  32     -13.849  -4.832   0.285  1.00 10.60     0.009 C 
ENDBRANCH  23  24
ENDBRANCH  22  23
END_RES LEU A  32
BEGIN_RES HIS A  38
REMARK  2 active torsions:
REMARK  status: ('A' for Active; 'I' for Inactive)
REMARK   12  A    between atoms: CA   and  CB  
REMARK   13  A    between atoms: CB   and  CG  
ROOT
ATOM     27  CA  HIS A  38     -10.959   4.941   1.621  1.00 16.94     0.182 C 
ENDROOT
BRANCH  27  28
ATOM     28  CB  HIS A  38     -11.810   4.840   2.881  1.00 15.47     0.095 C 
BRANCH  28  29
ATOM     29  CG  HIS A  38     -12.993   3.937   2.740  1.00 18.62     0.053 A 
ATOM     30  CD2 HIS A  38     -14.154   4.093   2.060  1.00 15.06     0.116 A 
ATOM     31  NE2 HIS A  38     -14.883   2.946   2.241  1.00 18.12    -0.359 N 
ATOM     32  CE1 HIS A  38     -14.198   2.116   3.004  1.00 14.78     0.207 A 
ATOM     33  H06 HIS A  38     -15.798   2.766   1.853  1.00 18.12     0.166 HD
ATOM     34  ND1 HIS A  38     -13.054   2.689   3.320  1.00 16.58    -0.247 NA
ENDBRANCH  28  29
ENDBRANCH  27  28
END_RES HIS A  38
BEGIN_RES TRP A  63
REMARK  2 active torsions:
REMARK  status: ('A' for Active; 'I' for Inactive)
REMARK   14  A    between atoms: CA   and  CB  
REMARK   15  A    between atoms: CB   and  CG  
ROOT
ATOM     35  CA  TRP A  63     -22.437   6.257   6.543  1.00 27.04     0.181 C 
ENDROOT
BRANCH  35  36
ATOM     36  CB  TRP A  63     -22.360   6.642   5.068  1.00 31.37     0.075 C 
BRANCH  36  37
ATOM     37  CG  TRP A  63     -20.953   6.803   4.532  1.00 34.37    -0.028 A 
ATOM     38  CD2 TRP A  63     -19.882   5.852   4.606  1.00 33.79    -0.002 A 
ATOM     39  CE3 TRP A  63     -19.742   4.589   5.185  1.00 32.99     0.014 A 
ATOM     40  CE2 TRP A  63     -18.784   6.405   3.912  1.00 35.84     0.042 A 
ATOM     41  CZ3 TRP A  63     -18.529   3.927   5.058  1.00 32.93     0.001 A 
ATOM     42  CH2 TRP A  63     -17.455   4.505   4.363  1.00 39.24     0.002 A 
ATOM     43  CZ2 TRP A  63     -17.563   5.741   3.783  1.00 37.99     0.030 A 
ATOM     44  NE1 TRP A  63     -19.172   7.631   3.446  1.00 37.98    -0.365 N 
ATOM     45  H06 TRP A  63     -18.596   8.265   2.910  1.00 37.98     0.165 HD
ATOM     46  CD1 TRP A  63     -20.473   7.860   3.825  1.00 38.16     0.096 A 
ENDBRANCH  36  37
ENDBRANCH  35  36
END_RES TRP A  63
BEGIN_RES LEU A  66
REMARK  2 active torsions:
REMARK  status: ('A' for Active; 'I' for Inactive)
REMARK   16  A    between atoms: CA   and  CB  
REMARK   17  A    between atoms: CB   and  CG  
ROOT
ATOM     47  CA  LEU A  66     -20.004   6.489  11.120  1.00 10.90     0.177 C 
ENDROOT
BRANCH  47  48
ATOM     48  CB  LEU A  66     -19.626   5.453  10.069  1.00 13.57     0.038 C 
BRANCH  48  49
ATOM     49  CG  LEU A  66     -19.374   4.025  10.553  1.00  8.73    -0.020 C 
ATOM     50  CD1 LEU A  66     -19.250   3.987  12.054  1.00 14.23     0.009 C 
ATOM     51  CD2 LEU A  66     -20.526   3.160  10.107  1.00  1.92     0.009 C 
ENDBRANCH  48  49
ENDBRANCH  47  48
END_RES LEU A  66
BEGIN_RES PHE A  70
REMARK  2 active torsions:
REMARK  status: ('A' for Active; 'I' for Inactive)
REMARK   18  A    between atoms: CA   and  CB  
REMARK   19  A    between atoms: CB   and  CG  
ROOT
ATOM     52  CA  PHE A  70     -14.974   9.434  13.165  1.00  8.78     0.180 C 
ENDROOT
BRANCH  52  53
ATOM     53  CB  PHE A  70     -14.707   9.132  11.681  1.00  6.33     0.073 C 
BRANCH  53  54
ATOM     54  CG  PHE A  70     -13.962   7.844  11.457  1.00  3.42    -0.056 A 
ATOM     55  CD1 PHE A  70     -13.472   7.106  12.524  1.00 13.88     0.007 A 
ATOM     56  CE1 PHE A  70     -12.736   5.928  12.306  1.00 12.71     0.001 A 
ATOM     57  CZ  PHE A  70     -12.489   5.486  11.006  1.00  4.21     0.000 A 
ATOM     58  CE2 PHE A  70     -12.974   6.212   9.934  1.00  2.83     0.001 A 
ATOM     59  CD2 PHE A  70     -13.709   7.388  10.163  1.00  1.00     0.007 A 
ENDBRANCH  53  54
ENDBRANCH  52  53
END_RES PHE A  70
BEGIN_RES TYR A  73
REMARK  3 active torsions:
REMARK  status: ('A' for Active; 'I' for Inactive)
REMARK   20  A    between atoms: CA   and  CB  
REMARK   21  A    between atoms: CB   and  CG  
REMARK   22  A    between atoms: CZ   and  OH  
ROOT
ATOM     60  CA  TYR A  73     -13.212  10.166  17.260  1.00 12.17     0.180 C 
ENDROOT
BRANCH  60  61
ATOM     61  CB  TYR A  73     -13.301   8.846  16.517  1.00 12.84     0.073 C 
BRANCH  61  62
ATOM     62  CG  TYR A  73     -13.564   7.688  17.415  1.00 15.89    -0.056 A 
ATOM     63  CD1 TYR A  73     -13.655   6.407  16.915  1.00 16.00     0.010 A 
ATOM     64  CE1 TYR A  73     -13.931   5.325  17.750  1.00 13.55     0.037 A 
ATOM     65  CZ  TYR A  73     -14.117   5.542  19.100  1.00 18.13     0.065 A 
ATOM     66  CE2 TYR A  73     -14.030   6.810  19.625  1.00 15.89     0.037 A 
ATOM     67  CD2 TYR A  73     -13.753   7.877  18.779  1.00 21.86     0.010 A 
BRANCH  65  68
ATOM     68  OH  TYR A  73     -14.385   4.490  19.941  1.00 12.12    -0.361 OA
ATOM     69  H08 TYR A  73     -14.806   4.817  20.740  1.00 12.12     0.217 HD
ENDBRANCH  65  68
ENDBRANCH  61  62
ENDBRANCH  60  61
END_RES TYR A  73
BEGIN_RES PHE A  77
REMARK  2 active torsions:
REMARK  status: ('A' for Active; 'I' for Inactive)
REMARK   23  A    between atoms: CA   and  CB  
REMARK   24  A    between atoms: CB   and  CG  
ROOT
ATOM     70  CA  PHE A  77      -8.400  10.581  20.110  1.00 17.17     0.180 C 
ENDROOT
BRANCH  70  71
ATOM     71  CB  PHE A  77      -8.228   9.750  18.851  1.00 10.44     0.073 C 
BRANCH  71  72
ATOM     72  CG  PHE A  77      -8.996   8.466  18.867  1.00  6.07    -0.056 A 
ATOM     73  CD2 PHE A  77      -9.621   8.038  20.016  1.00  9.61     0.007 A 
ATOM     74  CE2 PHE A  77     -10.338   6.848  20.039  1.00  1.00     0.001 A 
ATOM     75  CZ  PHE A  77     -10.433   6.076  18.893  1.00  1.92     0.000 A 
ATOM     76  CE1 PHE A  77      -9.816   6.491  17.735  1.00  9.25     0.001 A 
ATOM     77  CD1 PHE A  77      -9.098   7.686  17.726  1.00  9.63     0.007 A 
ENDBRANCH  71  72
ENDBRANCH  70  71
END_RES PHE A  77
BEGIN_RES LEU A  96
REMARK  2 active torsions:
REMARK  status: ('A' for Active; 'I' for Inactive)
REMARK   25  A    between atoms: CA   and  CB  
REMARK   26  A    between atoms: CB   and  CG  
ROOT
ATOM     78  CA  LEU A  96       0.717   6.481  17.359  1.00 16.08     0.177 C 
ENDROOT
BRANCH  78  79
ATOM     79  CB  LEU A  96      -0.370   7.101  18.230  1.00 18.83     0.038 C 
BRANCH  79  80
ATOM     80  CG  LEU A  96      -0.068   7.086  19.728  1.00 19.03    -0.020 C 
ATOM     81  CD1 LEU A  96       0.566   5.762  20.085  1.00 28.17     0.009 C 
ATOM     82  CD2 LEU A  96       0.900   8.192  20.082  1.00 22.01     0.009 C 
ENDBRANCH  79  80
ENDBRANCH  78  79
END_RES LEU A  96
BEGIN_RES VAL A  98
REMARK  1 active torsions:
REMARK  status: ('A' for Active; 'I' for Inactive)
REMARK   27  A    between atoms: CA   and  CB  
ROOT
ATOM     83  CA  VAL A  98      -3.928   2.082  14.897  1.00 19.83     0.180 C 
ENDROOT
BRANCH  83  84
ATOM     84  CB  VAL A  98      -5.203   2.807  15.281  1.00 17.87     0.009 C 
ATOM     85  CG2 VAL A  98      -4.890   4.224  15.687  1.00 29.90     0.012 C 
ATOM     86  CG1 VAL A  98      -5.889   2.064  16.408  1.00 14.79     0.012 C 
ENDBRANCH  83  84
END_RES VAL A  98
BEGIN_RES ASN A 112
REMARK  2 active torsions:
REMARK  status: ('A' for Active; 'I' for Inactive)
REMARK   28  A    between atoms: CA   and  CB  
REMARK   29  A    between atoms: CB   and  CG  
REMARK       I    between atoms: CG   and  ND2 
ROOT
ATOM     87  CA  ASN A 112     -11.790  -8.793  14.069  1.00 37.70     0.185 C 
ENDROOT
BRANCH  87  88
ATOM     88  CB  ASN A 112     -12.992  -7.945  14.465  1.00 26.24     0.137 C 
BRANCH  88  89
ATOM     89  CG  ASN A 112     -13.813  -8.563  15.574  1.00 21.77     0.217 C 
ATOM     90  ND2 ASN A 112     -14.959  -9.136  15.208  1.00  9.31    -0.370 N 
ATOM     91  H04 ASN A 112     -15.554  -9.565  15.903  1.00  9.31     0.159 HD
ATOM     92  H05 ASN A 112     -15.233  -9.142  14.235  1.00  9.31     0.159 HD
ATOM     93  OD1 ASN A 112     -13.429  -8.523  16.749  1.00 21.61    -0.274 OA
ENDBRANCH  88  89
ENDBRANCH  87  88
END_RES ASN A 112
BEGIN_RES PHE A 114
REMARK  2 active torsions:
REMARK  status: ('A' for Active; 'I' for Inactive)
REMARK   30  A    between atoms: CA   and  CB  
REMARK   31  A    between atoms: CB   and  CG  
ROOT
ATOM     94  CA  PHE A 114      -7.754  -3.619  17.012  1.00 26.06     0.180 C 
ENDROOT
BRANCH  94  95
ATOM     95  CB  PHE A 114      -8.890  -3.080  17.867  1.00 19.95     0.073 C 
BRANCH  95  96
ATOM     96  CG  PHE A 114      -9.275  -1.677  17.524  1.00 17.65    -0.056 A 
ATOM     97  CD1 PHE A 114      -8.304  -0.708  17.291  1.00 13.01     0.007 A 
ATOM     98  CE1 PHE A 114      -8.660   0.602  17.001  1.00  6.74     0.001 A 
ATOM     99  CZ  PHE A 114     -10.004   0.961  16.937  1.00  6.27     0.000 A 
ATOM    100  CE2 PHE A 114     -10.980   0.005  17.166  1.00 17.36     0.001 A 
ATOM    101  CD2 PHE A 114     -10.613  -1.313  17.459  1.00 18.39     0.007 A 
ENDBRANCH  95  96
ENDBRANCH  94  95
END_RES PHE A 114
BEGIN_RES VAL A 116
REMARK  1 active torsions:
REMARK  status: ('A' for Active; 'I' for Inactive)
REMARK   32  A    between atoms: CA   and  CB  
ROOT
ATOM    102  CA  VAL A 116      -2.467   0.283  18.565  1.00 13.48     0.180 C 
ENDROOT
BRANCH 102 103
ATOM    103  CB  VAL A 116      -3.101   1.238  19.599  1.00 20.86     0.009 C 
ATOM    104  CG1 VAL A 116      -3.391   2.588  18.938  1.00 25.01     0.012 C 
ATOM    105  CG2 VAL A 116      -4.349   0.632  20.197  1.00 25.34     0.012 C 
ENDBRANCH 102 103
END_RES VAL A 116
BEGIN_RES ILE A 123
REMARK  2 active torsions:
REMARK  status: ('A' for Active; 'I' for Inactive)
REMARK   33  A    between atoms: CA   and  CB  
REMARK   34  A    between atoms: CB   and  CG1 
ROOT
ATOM    106  CA  ILE A 123       1.557  -1.626  23.222  1.00 15.07     0.180 C 
ENDROOT
BRANCH 106 107
ATOM    107  CB  ILE A 123       1.697  -0.112  23.461  1.00 14.41     0.013 C 
ATOM    108  CG2 ILE A 123       3.074   0.198  24.021  1.00 18.35     0.012 C 
BRANCH 107 109
ATOM    109  CG1 ILE A 123       1.472   0.653  22.159  1.00 15.23     0.002 C 
ATOM    110  CD1 ILE A 123       0.163   1.404  22.117  1.00 14.67     0.005 C 
ENDBRANCH 107 109
ENDBRANCH 106 107
END_RES ILE A 123
BEGIN_RES LEU A 124
REMARK  2 active torsions:
REMARK  status: ('A' for Active; 'I' for Inactive)
REMARK   35  A    between atoms: CA   and  CB  
REMARK   36  A    between atoms: CB   and  CG  
ROOT
ATOM    111  CA  LEU A 124      -2.057  -2.686  23.524  1.00 11.86     0.177 C 
ENDROOT
BRANCH 111 112
ATOM    112  CB  LEU A 124      -2.698  -1.652  24.429  1.00 14.60     0.038 C 
BRANCH 112 113
ATOM    113  CG  LEU A 124      -2.645  -0.255  23.828  1.00 16.19    -0.020 C 
ATOM    114  CD1 LEU A 124      -4.083   0.234  23.568  1.00 22.07     0.009 C 
ATOM    115  CD2 LEU A 124      -1.898   0.665  24.761  1.00  9.12     0.009 C 
ENDBRANCH 112 113
ENDBRANCH 111 112
END_RES LEU A 124
BEGIN_RES PHE A 126
REMARK  2 active torsions:
REMARK  status: ('A' for Active; 'I' for Inactive)
REMARK   37  A    between atoms: CA   and  CB  
REMARK   38  A    between atoms: CB   and  CG  
ROOT
ATOM    116  CA  PHE A 126      -8.784  -4.792  22.233  1.00 23.15     0.180 C 
ENDROOT
BRANCH 116 117
ATOM    117  CB  PHE A 126      -9.823  -4.011  21.461  1.00 20.65     0.073 C 
BRANCH 117 118
ATOM    118  CG  PHE A 126     -10.931  -3.511  22.303  1.00 23.65    -0.056 A 
ATOM    119  CD2 PHE A 126     -12.199  -4.055  22.196  1.00 36.63     0.007 A 
ATOM    120  CE2 PHE A 126     -13.248  -3.581  22.997  1.00 36.27     0.001 A 
ATOM    121  CZ  PHE A 126     -13.018  -2.558  23.904  1.00 18.06     0.000 A 
ATOM    122  CE1 PHE A 126     -11.754  -2.015  24.015  1.00  5.50     0.001 A 
ATOM    123  CD1 PHE A 126     -10.715  -2.495  23.217  1.00 15.29     0.007 A 
ENDBRANCH 117 118
ENDBRANCH 116 117
END_RES PHE A 126
BEGIN_RES TRP A 131
REMARK  2 active torsions:
REMARK  status: ('A' for Active; 'I' for Inactive)
REMARK   39  A    between atoms: CA   and  CB  
REMARK   40  A    between atoms: CB   and  CG  
ROOT
ATOM    124  CA  TRP A 131      -8.096  -3.335  26.542  1.00 14.52     0.181 C 
ENDROOT
BRANCH 124 125
ATOM    125  CB  TRP A 131      -7.651  -1.877  26.607  1.00 13.06     0.075 C 
BRANCH 125 126
ATOM    126  CG  TRP A 131      -7.976  -1.073  25.368  1.00 16.97    -0.028 A 
ATOM    127  CD2 TRP A 131      -8.978  -0.059  25.248  1.00 11.34    -0.002 A 
ATOM    128  CE2 TRP A 131      -8.931   0.428  23.927  1.00  5.87     0.042 A 
ATOM    129  CE3 TRP A 131      -9.914   0.483  26.136  1.00  3.80     0.014 A 
ATOM    130  CZ2 TRP A 131      -9.783   1.436  23.472  1.00  1.35     0.030 A 
ATOM    131  NE1 TRP A 131      -7.946  -0.258  23.271  1.00 13.90    -0.365 N 
ATOM    132  CH2 TRP A 131     -10.690   1.951  24.365  1.00  1.00     0.002 A 
ATOM    133  CZ3 TRP A 131     -10.762   1.480  25.690  1.00  1.00     0.001 A 
ATOM    134  CD1 TRP A 131      -7.376  -1.157  24.141  1.00 17.22     0.096 A 
ATOM    135  H07 TRP A 131      -7.681  -0.125  22.305  1.00 13.90     0.165 HD
ENDBRANCH 125 126
ENDBRANCH 124 125
END_RES TRP A 131
BEGIN_RES LEU A 148
REMARK  2 active torsions:
REMARK  status: ('A' for Active; 'I' for Inactive)
REMARK   41  A    between atoms: CA   and  CB  
REMARK   42  A    between atoms: CB   and  CG  
ROOT
ATOM    136  CA  LEU A 148      -9.018   3.259  29.295  1.00 16.99     0.177 C 
ENDROOT
BRANCH 136 137
ATOM    137  CB  LEU A 148      -8.166   2.574  28.236  1.00  6.39     0.038 C 
BRANCH 137 138
ATOM    138  CG  LEU A 148      -7.527   3.366  27.114  1.00  1.00    -0.020 C 
ATOM    139  CD2 LEU A 148      -6.031   3.265  27.191  1.00  1.00     0.009 C 
ATOM    140  CD1 LEU A 148      -7.971   4.812  27.239  1.00  2.71     0.009 C 
ENDBRANCH 137 138
ENDBRANCH 136 137
END_RES LEU A 148
BEGIN_RES THR A 154
REMARK  2 active torsions:
REMARK  status: ('A' for Active; 'I' for Inactive)
REMARK   43  A    between atoms: CA   and  CB  
REMARK   44  A    between atoms: CB   and  OG1 
ROOT
ATOM    141  CA  THR A 154     -15.990   3.959  24.426  1.00 20.45     0.205 C 
ENDROOT
BRANCH 141 142
ATOM    142  CB  THR A 154     -14.777   4.829  24.694  1.00 16.79     0.146 C 
ATOM    143  CG2 THR A 154     -13.666   4.494  23.717  1.00 20.24     0.042 C 
BRANCH 142 144
ATOM    144  OG1 THR A 154     -15.144   6.204  24.523  1.00 18.84    -0.393 OA
ATOM    145  H06 THR A 154     -14.981   6.683  25.338  1.00 18.84     0.210 HD
ENDBRANCH 142 144
ENDBRANCH 141 142
END_RES THR A 154
BEGIN_RES VAL A 158
REMARK  1 active torsions:
REMARK  status: ('A' for Active; 'I' for Inactive)
REMARK   45  A    between atoms: CA   and  CB  
ROOT
ATOM    146  CA  VAL A 158     -15.487  -0.189  19.892  1.00 15.49     0.180 C 
ENDROOT
BRANCH 146 147
ATOM    147  CB  VAL A 158     -14.291  -0.273  20.822  1.00  6.52     0.009 C 
ATOM    148  CG1 VAL A 158     -13.243  -1.211  20.269  1.00  1.00     0.012 C 
ATOM    149  CG2 VAL A 158     -13.727   1.102  21.004  1.00  5.99     0.012 C 
ENDBRANCH 146 147
END_RES VAL A 158
BEGIN_RES LEU A 161
REMARK  2 active torsions:
REMARK  status: ('A' for Active; 'I' for Inactive)
REMARK   46  A    between atoms: CA   and  CB  
REMARK   47  A    between atoms: CB   and  CG  
ROOT
ATOM    150  CA  LEU A 161     -18.031  -1.858  15.935  1.00 13.31     0.177 C 
ENDROOT
BRANCH 150 151
ATOM    151  CB  LEU A 161     -17.046  -0.706  16.001  1.00 14.13     0.038 C 
BRANCH 151 152
ATOM    152  CG  LEU A 161     -17.557   0.647  15.523  1.00 19.39    -0.020 C 
ATOM    153  CD2 LEU A 161     -17.592   0.689  14.014  1.00 27.75     0.009 C 
ATOM    154  CD1 LEU A 161     -16.647   1.725  16.048  1.00 18.59     0.009 C 
ENDBRANCH 151 152
ENDBRANCH 150 151
END_RES LEU A 161
BEGIN_RES GLN A 168
REMARK  3 active torsions:
REMARK  status: ('A' for Active; 'I' for Inactive)
REMARK   48  A    between atoms: CA   and  CB  
REMARK   49  A    between atoms: CB   and  CG  
REMARK   50  A    between atoms: CG   and  CD  
REMARK       I    between atoms: CD   and  NE2 
ROOT
ATOM    155  CA  GLN A 168     -22.035  -6.020   8.155  1.00 30.94     0.177 C 
ENDROOT
BRANCH 155 156
ATOM    156  CB  GLN A 168     -23.054  -5.218   8.946  1.00 41.76     0.044 C 
BRANCH 156 157
ATOM    157  CG  GLN A 168     -24.482  -5.431   8.521  1.00 61.20     0.105 C 
BRANCH 157 158
ATOM    158  CD  GLN A 168     -24.981  -4.308   7.633  1.00 75.49     0.215 C 
ATOM    159  NE2 GLN A 168     -24.821  -4.480   6.319  1.00 85.00    -0.370 N 
ATOM    160  H06 GLN A 168     -25.131  -3.766   5.675  1.00 85.00     0.159 HD
ATOM    161  H07 GLN A 168     -24.390  -5.324   5.969  1.00 85.00     0.159 HD
ATOM    162  OE1 GLN A 168     -25.499  -3.292   8.117  1.00 73.64    -0.274 OA
ENDBRANCH 157 158
ENDBRANCH 156 157
ENDBRANCH 155 156
END_RES GLN A 168
ENDMDL
MODEL 2
REMARK VINA RESULT:     -10.7      2.078      4.505
REMARK  Name = 9548661
REMARK  9 active torsions:
REMARK  status: ('A' for Active; 'I' for Inactive)
REMARK    1  A    between atoms: O_1  and  C_11
REMARK    2  A    between atoms: O_2  and  C_24
REMARK    3  A    between atoms: C_5  and  C_19
REMARK    4  A    between atoms: C_9  and  C_22
REMARK    5  A    between atoms: C_10  and  C_20
REMARK    6  A    between atoms: C_20  and  C_25
REMARK    7  A    between atoms: C_20  and  C_26
REMARK    8  A    between atoms: C_25  and  C_27
REMARK    9  A    between atoms: C_27  and  C_28
REMARK                            x       y       z     vdW  Elec       q    Type
REMARK                         _______ _______ _______ _____ _____    ______ ____
ROOT
ATOM      1  C   UNL     1      -9.877   5.026  19.355  0.00  0.00    +0.000 C 
ATOM      2  C   UNL     1     -10.784   3.995  18.641  0.00  0.00    +0.000 C 
ATOM      3  C   UNL     1     -11.213   4.446  17.239  0.00  0.00    +0.000 C 
ATOM      4  C   UNL     1      -9.937   4.674  16.366  0.00  0.00    +0.000 C 
ATOM      5  C   UNL     1     -10.301   5.097  14.892  0.00  0.00    +0.000 C 
ATOM      6  C   UNL     1      -9.709   4.294  20.712  0.00  0.00    +0.000 C 
ATOM      7  C   UNL     1      -8.593   5.208  18.520  0.00  0.00    +0.000 C 
ATOM      8  C   UNL     1      -8.921   5.619  17.068  0.00  0.00    +0.000 C 
ATOM      9  C   UNL     1     -11.274   4.039  14.271  0.00  0.00    +0.000 C 
ATOM     10  C   UNL     1     -11.863   3.684  19.675  0.00  0.00    +0.000 C 
ATOM     11  C   UNL     1     -12.157   3.424  16.591  0.00  0.00    +0.000 C 
ATOM     12  C   UNL     1     -11.130   3.769  21.025  0.00  0.00    +0.000 C 
ATOM     13  C   UNL     1     -12.509   3.794  15.154  0.00  0.00    +0.000 C 
ATOM     14  C   UNL     1      -9.046   5.207  13.977  0.00  0.00    +0.000 C 
ATOM     15  C   UNL     1     -10.575   2.701  13.951  0.00  0.00    +0.000 C 
ATOM     16  C   UNL     1      -8.362   3.875  13.699  0.00  0.00    +0.000 C 
ATOM     17  C   UNL     1      -9.338   2.883  13.078  0.00  0.00    +0.000 C 
ATOM     18  H   UNL     1     -10.219   3.057  18.508  0.00  0.00    +0.000 HD
ATOM     19  H   UNL     1     -11.770   5.383  17.327  0.00  0.00    +0.000 HD
ATOM     20  H   UNL     1      -9.432   3.700  16.308  0.00  0.00    +0.000 HD
ATOM     21  H   UNL     1      -9.075   3.408  20.563  0.00  0.00    +0.000 HD
ATOM     22  H   UNL     1      -7.937   5.982  18.915  0.00  0.00    +0.000 HD
ATOM     23  H   UNL     1      -7.984   5.620  16.500  0.00  0.00    +0.000 HD
ATOM     24  H   UNL     1      -9.296   6.647  17.063  0.00  0.00    +0.000 HD
ATOM     25  H   UNL     1     -11.640   4.432  13.311  0.00  0.00    +0.000 HD
ATOM     26  H   UNL     1     -12.301   2.692  19.523  0.00  0.00    +0.000 HD
ATOM     27  H   UNL     1     -12.679   4.415  19.637  0.00  0.00    +0.000 HD
ATOM     28  H   UNL     1     -13.087   3.356  17.169  0.00  0.00    +0.000 HD
ATOM     29  H   UNL     1     -11.706   2.425  16.619  0.00  0.00    +0.000 HD
ATOM     30  H   UNL     1     -11.681   4.433  21.700  0.00  0.00    +0.000 HD
ATOM     31  H   UNL     1     -11.082   2.782  21.500  0.00  0.00    +0.000 HD
ATOM     32  H   UNL     1     -13.129   2.999  14.718  0.00  0.00    +0.000 HD
ATOM     33  H   UNL     1     -13.139   4.692  15.160  0.00  0.00    +0.000 HD
ATOM     34  H   UNL     1      -8.316   5.912  14.390  0.00  0.00    +0.000 HD
ATOM     35  H   UNL     1      -9.345   5.637  13.010  0.00  0.00    +0.000 HD
ATOM     36  H   UNL     1     -10.291   2.167  14.866  0.00  0.00    +0.000 HD
ATOM     37  H   UNL     1     -11.275   2.029  13.438  0.00  0.00    +0.000 HD
ATOM     38  H   UNL     1      -7.516   4.029  13.018  0.00  0.00    +0.000 HD
ATOM     39  H   UNL     1      -7.924   3.459  14.613  0.00  0.00    +0.000 HD
ATOM     40  H   UNL     1      -9.641   3.228  12.082  0.00  0.00    +0.000 HD
ENDROOT
BRANCH   1  41
ATOM     41  C   UNL     1     -10.549   6.410  19.556  0.00  0.00    +0.000 C 
ATOM     42  H   UNL     1     -11.391   6.571  18.875  0.00  0.00    +0.000 HD
ATOM     43  H   UNL     1     -10.933   6.526  20.574  0.00  0.00    +0.000 HD
ATOM     44  H   UNL     1      -9.857   7.242  19.396  0.00  0.00    +0.000 HD
ENDBRANCH   1  41
BRANCH   5  45
ATOM     45  C   UNL     1     -10.976   6.493  14.863  0.00  0.00    +0.000 C 
ATOM     46  H   UNL     1     -11.911   6.505  14.298  0.00  0.00    +0.000 HD
ATOM     47  H   UNL     1     -11.196   6.854  15.873  0.00  0.00    +0.000 HD
ATOM     48  H   UNL     1     -10.314   7.236  14.399  0.00  0.00    +0.000 HD
ENDBRANCH   5  45
BRANCH   7  49
ATOM     49  O   UNL     1      -7.839   3.996  18.489  0.00  0.00    +0.000 OA
ATOM     50  H   UNL     1      -8.246   3.378  19.119  0.00  0.00    +0.000 HD
ENDBRANCH   7  49
BRANCH  17  51
ATOM     51  O   UNL     1      -8.700   1.620  12.922  0.00  0.00    +0.000 OA
ATOM     52  H   UNL     1      -8.199   1.441  13.736  0.00  0.00    +0.000 HD
ENDBRANCH  17  51
BRANCH   6  53
ATOM     53  C   UNL     1      -9.115   5.110  21.852  0.00  0.00    +0.000 C 
ATOM     54  H   UNL     1      -8.849   6.111  21.496  0.00  0.00    +0.000 HD
BRANCH  53  55
ATOM     55  C   UNL     1      -7.832   4.443  22.361  0.00  0.00    +0.000 C 
ATOM     56  H   UNL     1      -7.108   5.173  22.730  0.00  0.00    +0.000 HD
ATOM     57  H   UNL     1      -7.296   3.941  21.555  0.00  0.00    +0.000 HD
ATOM     58  H   UNL     1      -8.025   3.746  23.182  0.00  0.00    +0.000 HD
ENDBRANCH  53  55
BRANCH  53  59
ATOM     59  C   UNL     1     -10.160   5.290  22.975  0.00  0.00    +0.000 C 
ATOM     60  H   UNL     1     -11.064   4.716  22.743  0.00  0.00    +0.000 HD
ATOM     61  H   UNL     1      -9.761   4.869  23.908  0.00  0.00    +0.000 HD
BRANCH  59  62
ATOM     62  C   UNL     1     -10.569   6.736  23.253  0.00  0.00    +0.000 C 
ATOM     63  H   UNL     1      -9.655   7.314  23.446  0.00  0.00    +0.000 HD
ATOM     64  H   UNL     1     -11.021   7.202  22.371  0.00  0.00    +0.000 HD
BRANCH  62  67
ATOM     65  O   UNL     1     -11.107   6.356  25.535  0.00  0.00    +0.000 OA
ATOM     66  O   UNL     1     -12.470   7.684  24.270  0.00  0.00    +0.000 OA
ATOM     67  C   UNL     1     -11.463   6.947  24.478  0.00  0.00    +0.000 C 
ENDBRANCH  62  67
ENDBRANCH  59  62
ENDBRANCH  53  59
ENDBRANCH   6  53
TORSDOF 9
BEGIN_RES LEU A  10
REMARK  2 active torsions:
REMARK  status: ('A' for Active; 'I' for Inactive)
REMARK    1  A    between atoms: CA   and  CB  
REMARK    2  A    between atoms: CB   and  CG  
ROOT
ATOM      1  CA  LEU A  10     -10.775  -4.871   5.898  1.00 25.14     0.177 C 
ENDROOT
BRANCH   1   2
ATOM      2  CB  LEU A  10     -12.191  -4.387   6.226  1.00 17.87     0.038 C 
BRANCH   2   3
ATOM      3  CG  LEU A  10     -12.419  -2.892   5.992  1.00 24.95    -0.020 C 
ATOM      4  CD2 LEU A  10     -13.682  -2.481   6.670  1.00 26.38     0.009 C 
ATOM      5  CD1 LEU A  10     -12.482  -2.578   4.507  1.00 28.12     0.009 C 
ENDBRANCH   2   3
ENDBRANCH   1   2
END_RES LEU A  10
BEGIN_RES CYS A  12
REMARK  2 active torsions:
REMARK  status: ('A' for Active; 'I' for Inactive)
REMARK    3  A    between atoms: CA   and  CB  
REMARK    4  A    between atoms: CB   and  SG  
ROOT
ATOM      6  CA  CYS A  12      -8.555   0.470   8.750  1.00 23.16     0.185 C 
ENDROOT
BRANCH   6   7
ATOM      7  CB  CYS A  12      -9.828   0.763   9.555  1.00 20.43     0.105 C 
BRANCH   7   8
ATOM      8  SG  CYS A  12     -11.296   1.231   8.588  1.00 24.64    -0.180 SA
ATOM      9  H04 CYS A  12     -12.242   1.703   9.411  1.00 24.64     0.101 HD
ENDBRANCH   7   8
ENDBRANCH   6   7
END_RES CYS A  12
BEGIN_RES GLN A  14
REMARK  3 active torsions:
REMARK  status: ('A' for Active; 'I' for Inactive)
REMARK    5  A    between atoms: CA   and  CB  
REMARK    6  A    between atoms: CB   and  CG  
REMARK    7  A    between atoms: CG   and  CD  
REMARK       I    between atoms: CD   and  NE2 
ROOT
ATOM     10  CA  GLN A  14      -4.645   5.402  11.377  1.00 10.43     0.177 C 
ENDROOT
BRANCH  10  11
ATOM     11  CB  GLN A  14      -5.541   5.549  12.608  1.00 14.45     0.044 C 
BRANCH  11  12
ATOM     12  CG  GLN A  14      -6.326   6.840  12.649  1.00 13.74     0.105 C 
BRANCH  12  13
ATOM     13  CD  GLN A  14      -5.479   8.018  13.066  1.00 16.29     0.215 C 
ATOM     14  NE2 GLN A  14      -5.130   8.070  14.333  1.00  8.57    -0.370 N 
ATOM     15  H06 GLN A  14      -4.562   8.834  14.669  1.00  8.57     0.159 HD
ATOM     16  H07 GLN A  14      -5.430   7.345  14.970  1.00  8.57     0.159 HD
ATOM     17  OE1 GLN A  14      -5.141   8.868  12.258  1.00 23.55    -0.274 OA
ENDBRANCH  12  13
ENDBRANCH  11  12
ENDBRANCH  10  11
END_RES GLN A  14
BEGIN_RES SER A  16
REMARK  2 active torsions:
REMARK  status: ('A' for Active; 'I' for Inactive)
REMARK    8  A    between atoms: CA   and  CB  
REMARK    9  A    between atoms: CB   and  OG  
ROOT
ATOM     18  CA  SER A  16      -1.305  10.019  14.282  1.00  2.34     0.200 C 
ENDROOT
BRANCH  18  19
ATOM     19  CB  SER A  16      -2.242   9.935  15.479  1.00  3.12     0.199 C 
BRANCH  19  20
ATOM     20  OG  SER A  16      -2.469   8.582  15.833  1.00  1.00    -0.398 OA
ATOM     21  H04 SER A  16      -1.734   8.262  16.361  1.00  1.00     0.209 HD
ENDBRANCH  19  20
ENDBRANCH  18  19
END_RES SER A  16
BEGIN_RES LEU A  32
REMARK  2 active torsions:
REMARK  status: ('A' for Active; 'I' for Inactive)
REMARK   10  A    between atoms: CA   and  CB  
REMARK   11  A    between atoms: CB   and  CG  
ROOT
ATOM     22  CA  LEU A  32     -10.272  -4.106   1.587  1.00 16.16     0.177 C 
ENDROOT
BRANCH  22  23
ATOM     23  CB  LEU A  32     -11.613  -3.858   0.880  1.00 12.35     0.038 C 
BRANCH  23  24
ATOM     24  CG  LEU A  32     -12.528  -5.099   0.932  1.00  9.77    -0.020 C 
ATOM     25  CD1 LEU A  32     -13.016  -5.332   2.342  1.00  4.35     0.009 C 
ATOM     26  CD2 LEU A  32     -13.705  -4.937   0.006  1.00 10.60     0.009 C 
ENDBRANCH  23  24
ENDBRANCH  22  23
END_RES LEU A  32
BEGIN_RES HIS A  38
REMARK  2 active torsions:
REMARK  status: ('A' for Active; 'I' for Inactive)
REMARK   12  A    between atoms: CA   and  CB  
REMARK   13  A    between atoms: CB   and  CG  
ROOT
ATOM     27  CA  HIS A  38     -10.959   4.941   1.621  1.00 16.94     0.182 C 
ENDROOT
BRANCH  27  28
ATOM     28  CB  HIS A  38     -11.810   4.840   2.881  1.00 15.47     0.095 C 
BRANCH  28  29
ATOM     29  CG  HIS A  38     -13.003   3.951   2.734  1.00 18.62     0.053 A 
ATOM     30  CD2 HIS A  38     -14.169   4.132   2.069  1.00 15.06     0.116 A 
ATOM     31  NE2 HIS A  38     -14.907   2.988   2.235  1.00 18.12    -0.359 N 
ATOM     32  CE1 HIS A  38     -14.223   2.137   2.975  1.00 14.78     0.207 A 
ATOM     33  H06 HIS A  38     -15.828   2.825   1.853  1.00 18.12     0.166 HD
ATOM     34  ND1 HIS A  38     -13.070   2.693   3.290  1.00 16.58    -0.247 NA
ENDBRANCH  28  29
ENDBRANCH  27  28
END_RES HIS A  38
BEGIN_RES TRP A  63
REMARK  2 active torsions:
REMARK  status: ('A' for Active; 'I' for Inactive)
REMARK   14  A    between atoms: CA   and  CB  
REMARK   15  A    between atoms: CB   and  CG  
ROOT
ATOM     35  CA  TRP A  63     -22.437   6.257   6.543  1.00 27.04     0.181 C 
ENDROOT
BRANCH  35  36
ATOM     36  CB  TRP A  63     -22.360   6.642   5.068  1.00 31.37     0.075 C 
BRANCH  36  37
ATOM     37  CG  TRP A  63     -20.954   6.718   4.510  1.00 34.37    -0.028 A 
ATOM     38  CD2 TRP A  63     -19.906   5.752   4.665  1.00 33.79    -0.002 A 
ATOM     39  CE3 TRP A  63     -19.790   4.545   5.360  1.00 32.99     0.014 A 
ATOM     40  CE2 TRP A  63     -18.801   6.211   3.915  1.00 35.84     0.042 A 
ATOM     41  CZ3 TRP A  63     -18.594   3.846   5.288  1.00 32.93     0.001 A 
ATOM     42  CH2 TRP A  63     -17.513   4.329   4.534  1.00 39.24     0.002 A 
ATOM     43  CZ2 TRP A  63     -17.598   5.508   3.841  1.00 37.99     0.030 A 
ATOM     44  NE1 TRP A  63     -19.165   7.396   3.338  1.00 37.98    -0.365 N 
ATOM     45  H06 TRP A  63     -18.579   7.963   2.741  1.00 37.98     0.165 HD
ATOM     46  CD1 TRP A  63     -20.456   7.692   3.703  1.00 38.16     0.096 A 
ENDBRANCH  36  37
ENDBRANCH  35  36
END_RES TRP A  63
BEGIN_RES LEU A  66
REMARK  2 active torsions:
REMARK  status: ('A' for Active; 'I' for Inactive)
REMARK   16  A    between atoms: CA   and  CB  
REMARK   17  A    between atoms: CB   and  CG  
ROOT
ATOM     47  CA  LEU A  66     -20.004   6.489  11.120  1.00 10.90     0.177 C 
ENDROOT
BRANCH  47  48
ATOM     48  CB  LEU A  66     -19.626   5.453  10.069  1.00 13.57     0.038 C 
BRANCH  48  49
ATOM     49  CG  LEU A  66     -19.837   3.983  10.429  1.00  8.73    -0.020 C 
ATOM     50  CD1 LEU A  66     -19.504   3.096   9.257  1.00 14.23     0.009 C 
ATOM     51  CD2 LEU A  66     -18.950   3.646  11.600  1.00  1.92     0.009 C 
ENDBRANCH  48  49
ENDBRANCH  47  48
END_RES LEU A  66
BEGIN_RES PHE A  70
REMARK  2 active torsions:
REMARK  status: ('A' for Active; 'I' for Inactive)
REMARK   18  A    between atoms: CA   and  CB  
REMARK   19  A    between atoms: CB   and  CG  
ROOT
ATOM     52  CA  PHE A  70     -14.974   9.434  13.165  1.00  8.78     0.180 C 
ENDROOT
BRANCH  52  53
ATOM     53  CB  PHE A  70     -14.707   9.132  11.681  1.00  6.33     0.073 C 
BRANCH  53  54
ATOM     54  CG  PHE A  70     -14.079   7.785  11.448  1.00  3.42    -0.056 A 
ATOM     55  CD1 PHE A  70     -13.622   7.416  10.192  1.00 13.88     0.007 A 
ATOM     56  CE1 PHE A  70     -13.080   6.137   9.971  1.00 12.71     0.001 A 
ATOM     57  CZ  PHE A  70     -12.993   5.221  11.019  1.00  4.21     0.000 A 
ATOM     58  CE2 PHE A  70     -13.443   5.578  12.277  1.00  2.83     0.001 A 
ATOM     59  CD2 PHE A  70     -13.984   6.858  12.487  1.00  1.00     0.007 A 
ENDBRANCH  53  54
ENDBRANCH  52  53
END_RES PHE A  70
BEGIN_RES TYR A  73
REMARK  3 active torsions:
REMARK  status: ('A' for Active; 'I' for Inactive)
REMARK   20  A    between atoms: CA   and  CB  
REMARK   21  A    between atoms: CB   and  CG  
REMARK   22  A    between atoms: CZ   and  OH  
ROOT
ATOM     60  CA  TYR A  73     -13.212  10.166  17.260  1.00 12.17     0.180 C 
ENDROOT
BRANCH  60  61
ATOM     61  CB  TYR A  73     -13.301   8.846  16.517  1.00 12.84     0.073 C 
BRANCH  61  62
ATOM     62  CG  TYR A  73     -13.780   7.726  17.373  1.00 15.89    -0.056 A 
ATOM     63  CD1 TYR A  73     -14.207   6.539  16.818  1.00 16.00     0.010 A 
ATOM     64  CE1 TYR A  73     -14.685   5.500  17.616  1.00 13.55     0.037 A 
ATOM     65  CZ  TYR A  73     -14.732   5.665  18.985  1.00 18.13     0.065 A 
ATOM     66  CE2 TYR A  73     -14.311   6.840  19.565  1.00 15.89     0.037 A 
ATOM     67  CD2 TYR A  73     -13.837   7.864  18.755  1.00 21.86     0.010 A 
BRANCH  65  68
ATOM     68  OH  TYR A  73     -15.194   4.653  19.790  1.00 12.12    -0.361 OA
ATOM     69  H08 TYR A  73     -15.280   3.848  19.275  1.00 12.12     0.217 HD
ENDBRANCH  65  68
ENDBRANCH  61  62
ENDBRANCH  60  61
END_RES TYR A  73
BEGIN_RES PHE A  77
REMARK  2 active torsions:
REMARK  status: ('A' for Active; 'I' for Inactive)
REMARK   23  A    between atoms: CA   and  CB  
REMARK   24  A    between atoms: CB   and  CG  
ROOT
ATOM     70  CA  PHE A  77      -8.400  10.581  20.110  1.00 17.17     0.180 C 
ENDROOT
BRANCH  70  71
ATOM     71  CB  PHE A  77      -8.228   9.750  18.851  1.00 10.44     0.073 C 
BRANCH  71  72
ATOM     72  CG  PHE A  77      -7.220   8.652  18.986  1.00  6.07    -0.056 A 
ATOM     73  CD2 PHE A  77      -6.417   8.305  17.924  1.00  9.61     0.007 A 
ATOM     74  CE2 PHE A  77      -5.477   7.288  18.041  1.00  1.00     0.001 A 
ATOM     75  CZ  PHE A  77      -5.337   6.611  19.240  1.00  1.92     0.000 A 
ATOM     76  CE1 PHE A  77      -6.132   6.947  20.313  1.00  9.25     0.001 A 
ATOM     77  CD1 PHE A  77      -7.072   7.968  20.182  1.00  9.63     0.007 A 
ENDBRANCH  71  72
ENDBRANCH  70  71
END_RES PHE A  77
BEGIN_RES LEU A  96
REMARK  2 active torsions:
REMARK  status: ('A' for Active; 'I' for Inactive)
REMARK   25  A    between atoms: CA   and  CB  
REMARK   26  A    between atoms: CB   and  CG  
ROOT
ATOM     78  CA  LEU A  96       0.717   6.481  17.359  1.00 16.08     0.177 C 
ENDROOT
BRANCH  78  79
ATOM     79  CB  LEU A  96      -0.370   7.101  18.230  1.00 18.83     0.038 C 
BRANCH  79  80
ATOM     80  CG  LEU A  96      -0.910   6.179  19.323  1.00 19.03    -0.020 C 
ATOM     81  CD1 LEU A  96       0.251   5.642  20.126  1.00 28.17     0.009 C 
ATOM     82  CD2 LEU A  96      -1.823   6.944  20.254  1.00 22.01     0.009 C 
ENDBRANCH  79  80
ENDBRANCH  78  79
END_RES LEU A  96
BEGIN_RES VAL A  98
REMARK  1 active torsions:
REMARK  status: ('A' for Active; 'I' for Inactive)
REMARK   27  A    between atoms: CA   and  CB  
ROOT
ATOM     83  CA  VAL A  98      -3.928   2.082  14.897  1.00 19.83     0.180 C 
ENDROOT
BRANCH  83  84
ATOM     84  CB  VAL A  98      -5.203   2.807  15.281  1.00 17.87     0.009 C 
ATOM     85  CG2 VAL A  98      -4.911   4.261  15.545  1.00 29.90     0.012 C 
ATOM     86  CG1 VAL A  98      -5.811   2.151  16.503  1.00 14.79     0.012 C 
ENDBRANCH  83  84
END_RES VAL A  98
BEGIN_RES ASN A 112
REMARK  2 active torsions:
REMARK  status: ('A' for Active; 'I' for Inactive)
REMARK   28  A    between atoms: CA   and  CB  
REMARK   29  A    between atoms: CB   and  CG  
REMARK       I    between atoms: CG   and  ND2 
ROOT
ATOM     87  CA  ASN A 112     -11.790  -8.793  14.069  1.00 37.70     0.185 C 
ENDROOT
BRANCH  87  88
ATOM     88  CB  ASN A 112     -12.992  -7.945  14.465  1.00 26.24     0.137 C 
BRANCH  88  89
ATOM     89  CG  ASN A 112     -13.818  -8.566  15.569  1.00 21.77     0.217 C 
ATOM     90  ND2 ASN A 112     -14.968  -9.128  15.198  1.00  9.31    -0.370 N 
ATOM     91  H04 ASN A 112     -15.566  -9.558  15.890  1.00  9.31     0.159 HD
ATOM     92  H05 ASN A 112     -15.242  -9.123  14.226  1.00  9.31     0.159 HD
ATOM     93  OD1 ASN A 112     -13.432  -8.540  16.744  1.00 21.61    -0.274 OA
ENDBRANCH  88  89
ENDBRANCH  87  88
END_RES ASN A 112
BEGIN_RES PHE A 114
REMARK  2 active torsions:
REMARK  status: ('A' for Active; 'I' for Inactive)
REMARK   30  A    between atoms: CA   and  CB  
REMARK   31  A    between atoms: CB   and  CG  
ROOT
ATOM     94  CA  PHE A 114      -7.754  -3.619  17.012  1.00 26.06     0.180 C 
ENDROOT
BRANCH  94  95
ATOM     95  CB  PHE A 114      -8.890  -3.080  17.867  1.00 19.95     0.073 C 
BRANCH  95  96
ATOM     96  CG  PHE A 114      -9.204  -1.644  17.598  1.00 17.65    -0.056 A 
ATOM     97  CD1 PHE A 114      -8.186  -0.700  17.490  1.00 13.01     0.007 A 
ATOM     98  CE1 PHE A 114      -8.478   0.639  17.269  1.00  6.74     0.001 A 
ATOM     99  CZ  PHE A 114      -9.801   1.054  17.150  1.00  6.27     0.000 A 
ATOM    100  CE2 PHE A 114     -10.823   0.124  17.255  1.00 17.36     0.001 A 
ATOM    101  CD2 PHE A 114     -10.521  -1.224  17.478  1.00 18.39     0.007 A 
ENDBRANCH  95  96
ENDBRANCH  94  95
END_RES PHE A 114
BEGIN_RES VAL A 116
REMARK  1 active torsions:
REMARK  status: ('A' for Active; 'I' for Inactive)
REMARK   32  A    between atoms: CA   and  CB  
ROOT
ATOM    102  CA  VAL A 116      -2.467   0.283  18.565  1.00 13.48     0.180 C 
ENDROOT
BRANCH 102 103
ATOM    103  CB  VAL A 116      -3.101   1.238  19.599  1.00 20.86     0.009 C 
ATOM    104  CG1 VAL A 116      -3.006   2.679  19.090  1.00 25.01     0.012 C 
ATOM    105  CG2 VAL A 116      -4.530   0.844  19.891  1.00 25.34     0.012 C 
ENDBRANCH 102 103
END_RES VAL A 116
BEGIN_RES ILE A 123
REMARK  2 active torsions:
REMARK  status: ('A' for Active; 'I' for Inactive)
REMARK   33  A    between atoms: CA   and  CB  
REMARK   34  A    between atoms: CB   and  CG1 
ROOT
ATOM    106  CA  ILE A 123       1.557  -1.626  23.222  1.00 15.07     0.180 C 
ENDROOT
BRANCH 106 107
ATOM    107  CB  ILE A 123       1.697  -0.112  23.461  1.00 14.41     0.013 C 
ATOM    108  CG2 ILE A 123       3.091   0.204  23.974  1.00 18.35     0.012 C 
BRANCH 107 109
ATOM    109  CG1 ILE A 123       1.423   0.656  22.170  1.00 15.23     0.002 C 
ATOM    110  CD1 ILE A 123       0.208   1.549  22.243  1.00 14.67     0.005 C 
ENDBRANCH 107 109
ENDBRANCH 106 107
END_RES ILE A 123
BEGIN_RES LEU A 124
REMARK  2 active torsions:
REMARK  status: ('A' for Active; 'I' for Inactive)
REMARK   35  A    between atoms: CA   and  CB  
REMARK   36  A    between atoms: CB   and  CG  
ROOT
ATOM    111  CA  LEU A 124      -2.057  -2.686  23.524  1.00 11.86     0.177 C 
ENDROOT
BRANCH 111 112
ATOM    112  CB  LEU A 124      -2.698  -1.652  24.429  1.00 14.60     0.038 C 
BRANCH 112 113
ATOM    113  CG  LEU A 124      -2.627  -0.252  23.837  1.00 16.19    -0.020 C 
ATOM    114  CD1 LEU A 124      -4.047   0.198  23.442  1.00 22.07     0.009 C 
ATOM    115  CD2 LEU A 124      -1.999   0.685  24.838  1.00  9.12     0.009 C 
ENDBRANCH 112 113
ENDBRANCH 111 112
END_RES LEU A 124
BEGIN_RES PHE A 126
REMARK  2 active torsions:
REMARK  status: ('A' for Active; 'I' for Inactive)
REMARK   37  A    between atoms: CA   and  CB  
REMARK   38  A    between atoms: CB   and  CG  
ROOT
ATOM    116  CA  PHE A 126      -8.784  -4.792  22.233  1.00 23.15     0.180 C 
ENDROOT
BRANCH 116 117
ATOM    117  CB  PHE A 126      -9.823  -4.011  21.461  1.00 20.65     0.073 C 
BRANCH 117 118
ATOM    118  CG  PHE A 126     -10.944  -3.533  22.299  1.00 23.65    -0.056 A 
ATOM    119  CD2 PHE A 126     -10.745  -2.544  23.246  1.00 36.63     0.007 A 
ATOM    120  CE2 PHE A 126     -11.809  -2.090  24.038  1.00 36.27     0.001 A 
ATOM    121  CZ  PHE A 126     -13.073  -2.636  23.876  1.00 18.06     0.000 A 
ATOM    122  CE1 PHE A 126     -13.276  -3.622  22.931  1.00  5.50     0.001 A 
ATOM    123  CD1 PHE A 126     -12.212  -4.065  22.145  1.00 15.29     0.007 A 
ENDBRANCH 117 118
ENDBRANCH 116 117
END_RES PHE A 126
BEGIN_RES TRP A 131
REMARK  2 active torsions:
REMARK  status: ('A' for Active; 'I' for Inactive)
REMARK   39  A    between atoms: CA   and  CB  
REMARK   40  A    between atoms: CB   and  CG  
ROOT
ATOM    124  CA  TRP A 131      -8.096  -3.335  26.542  1.00 14.52     0.181 C 
ENDROOT
BRANCH 124 125
ATOM    125  CB  TRP A 131      -7.651  -1.877  26.607  1.00 13.06     0.075 C 
BRANCH 125 126
ATOM    126  CG  TRP A 131      -8.023  -1.059  25.390  1.00 16.97    -0.028 A 
ATOM    127  CD2 TRP A 131      -9.089  -0.111  25.294  1.00 11.34    -0.002 A 
ATOM    128  CE2 TRP A 131      -9.068   0.418  23.989  1.00  5.87     0.042 A 
ATOM    129  CE3 TRP A 131     -10.062   0.342  26.192  1.00  3.80     0.014 A 
ATOM    130  CZ2 TRP A 131      -9.983   1.381  23.558  1.00  1.35     0.030 A 
ATOM    131  NE1 TRP A 131      -8.038  -0.182  23.318  1.00 13.90    -0.365 N 
ATOM    132  CH2 TRP A 131     -10.926   1.808  24.460  1.00  1.00     0.002 A 
ATOM    133  CZ3 TRP A 131     -10.972   1.295  25.770  1.00  1.00     0.001 A 
ATOM    134  CD1 TRP A 131      -7.414  -1.068  24.165  1.00 17.22     0.096 A 
ATOM    135  H07 TRP A 131      -7.778  -0.004  22.358  1.00 13.90     0.165 HD
ENDBRANCH 125 126
ENDBRANCH 124 125
END_RES TRP A 131
BEGIN_RES LEU A 148
REMARK  2 active torsions:
REMARK  status: ('A' for Active; 'I' for Inactive)
REMARK   41  A    between atoms: CA   and  CB  
REMARK   42  A    between atoms: CB   and  CG  
ROOT
ATOM    136  CA  LEU A 148      -9.018   3.259  29.295  1.00 16.99     0.177 C 
ENDROOT
BRANCH 136 137
ATOM    137  CB  LEU A 148      -8.166   2.574  28.236  1.00  6.39     0.038 C 
BRANCH 137 138
ATOM    138  CG  LEU A 148      -7.522   3.367  27.117  1.00  1.00    -0.020 C 
ATOM    139  CD2 LEU A 148      -8.573   4.044  26.287  1.00  1.00     0.009 C 
ATOM    140  CD1 LEU A 148      -6.703   2.412  26.268  1.00  2.71     0.009 C 
ENDBRANCH 137 138
ENDBRANCH 136 137
END_RES LEU A 148
BEGIN_RES THR A 154
REMARK  2 active torsions:
REMARK  status: ('A' for Active; 'I' for Inactive)
REMARK   43  A    between atoms: CA   and  CB  
REMARK   44  A    between atoms: CB   and  OG1 
ROOT
ATOM    141  CA  THR A 154     -15.990   3.959  24.426  1.00 20.45     0.205 C 
ENDROOT
BRANCH 141 142
ATOM    142  CB  THR A 154     -14.777   4.829  24.694  1.00 16.79     0.146 C 
ATOM    143  CG2 THR A 154     -13.640   4.441  23.769  1.00 20.24     0.042 C 
BRANCH 142 144
ATOM    144  OG1 THR A 154     -15.124   6.198  24.451  1.00 18.84    -0.393 OA
ATOM    145  H06 THR A 154     -16.063   6.262  24.261  1.00 18.84     0.210 HD
ENDBRANCH 142 144
ENDBRANCH 141 142
END_RES THR A 154
BEGIN_RES VAL A 158
REMARK  1 active torsions:
REMARK  status: ('A' for Active; 'I' for Inactive)
REMARK   45  A    between atoms: CA   and  CB  
ROOT
ATOM    146  CA  VAL A 158     -15.487  -0.189  19.892  1.00 15.49     0.180 C 
ENDROOT
BRANCH 146 147
ATOM    147  CB  VAL A 158     -14.291  -0.273  20.822  1.00  6.52     0.009 C 
ATOM    148  CG1 VAL A 158     -13.212  -1.152  20.234  1.00  1.00     0.012 C 
ATOM    149  CG2 VAL A 158     -13.773   1.111  21.064  1.00  5.99     0.012 C 
ENDBRANCH 146 147
END_RES VAL A 158
BEGIN_RES LEU A 161
REMARK  2 active torsions:
REMARK  status: ('A' for Active; 'I' for Inactive)
REMARK   46  A    between atoms: CA   and  CB  
REMARK   47  A    between atoms: CB   and  CG  
ROOT
ATOM    150  CA  LEU A 161     -18.031  -1.858  15.935  1.00 13.31     0.177 C 
ENDROOT
BRANCH 150 151
ATOM    151  CB  LEU A 161     -17.046  -0.706  16.001  1.00 14.13     0.038 C 
BRANCH 151 152
ATOM    152  CG  LEU A 161     -17.538   0.634  15.468  1.00 19.39    -0.020 C 
ATOM    153  CD2 LEU A 161     -17.543   0.626  13.959  1.00 27.75     0.009 C 
ATOM    154  CD1 LEU A 161     -16.631   1.722  15.975  1.00 18.59     0.009 C 
ENDBRANCH 151 152
ENDBRANCH 150 151
END_RES LEU A 161
BEGIN_RES GLN A 168
REMARK  3 active torsions:
REMARK  status: ('A' for Active; 'I' for Inactive)
REMARK   48  A    between atoms: CA   and  CB  
REMARK   49  A    between atoms: CB   and  CG  
REMARK   50  A    between atoms: CG   and  CD  
REMARK       I    between atoms: CD   and  NE2 
ROOT
ATOM    155  CA  GLN A 168     -22.035  -6.020   8.155  1.00 30.94     0.177 C 
ENDROOT
BRANCH 155 156
ATOM    156  CB  GLN A 168     -23.054  -5.218   8.946  1.00 41.76     0.044 C 
BRANCH 156 157
ATOM    157  CG  GLN A 168     -24.482  -5.431   8.521  1.00 61.20     0.105 C 
BRANCH 157 158
ATOM    158  CD  GLN A 168     -24.981  -4.310   7.632  1.00 75.49     0.215 C 
ATOM    159  NE2 GLN A 168     -24.827  -4.486   6.318  1.00 85.00    -0.370 N 
ATOM    160  H06 GLN A 168     -25.137  -3.773   5.673  1.00 85.00     0.159 HD
ATOM    161  H07 GLN A 168     -24.401  -5.333   5.969  1.00 85.00     0.159 HD
ATOM    162  OE1 GLN A 168     -25.494  -3.290   8.115  1.00 73.64    -0.274 OA
ENDBRANCH 157 158
ENDBRANCH 156 157
ENDBRANCH 155 156
END_RES GLN A 168
ENDMDL
MODEL 3
REMARK VINA RESULT:     -10.7      1.367      2.382
REMARK  Name = 9548661
REMARK  9 active torsions:
REMARK  status: ('A' for Active; 'I' for Inactive)
REMARK    1  A    between atoms: O_1  and  C_11
REMARK    2  A    between atoms: O_2  and  C_24
REMARK    3  A    between atoms: C_5  and  C_19
REMARK    4  A    between atoms: C_9  and  C_22
REMARK    5  A    between atoms: C_10  and  C_20
REMARK    6  A    between atoms: C_20  and  C_25
REMARK    7  A    between atoms: C_20  and  C_26
REMARK    8  A    between atoms: C_25  and  C_27
REMARK    9  A    between atoms: C_27  and  C_28
REMARK                            x       y       z     vdW  Elec       q    Type
REMARK                         _______ _______ _______ _____ _____    ______ ____
ROOT
ATOM      1  C   UNL     1      -5.146   5.683  23.420  0.00  0.00    +0.000 C 
ATOM      2  C   UNL     1      -5.808   5.070  22.163  0.00  0.00    +0.000 C 
ATOM      3  C   UNL     1      -7.290   4.734  22.372  0.00  0.00    +0.000 C 
ATOM      4  C   UNL     1      -8.059   6.041  22.752  0.00  0.00    +0.000 C 
ATOM      5  C   UNL     1      -9.602   5.782  22.939  0.00  0.00    +0.000 C 
ATOM      6  C   UNL     1      -3.697   5.821  22.882  0.00  0.00    +0.000 C 
ATOM      7  C   UNL     1      -5.870   7.002  23.761  0.00  0.00    +0.000 C 
ATOM      8  C   UNL     1      -7.386   6.777  23.946  0.00  0.00    +0.000 C 
ATOM      9  C   UNL     1     -10.175   5.098  21.652  0.00  0.00    +0.000 C 
ATOM     10  C   UNL     1      -4.851   3.952  21.758  0.00  0.00    +0.000 C 
ATOM     11  C   UNL     1      -7.892   4.076  21.123  0.00  0.00    +0.000 C 
ATOM     12  C   UNL     1      -3.458   4.494  22.126  0.00  0.00    +0.000 C 
ATOM     13  C   UNL     1      -9.391   3.834  21.265  0.00  0.00    +0.000 C 
ATOM     14  C   UNL     1     -10.399   7.095  23.195  0.00  0.00    +0.000 C 
ATOM     15  C   UNL     1     -10.257   6.063  20.450  0.00  0.00    +0.000 C 
ATOM     16  C   UNL     1     -10.441   8.038  22.000  0.00  0.00    +0.000 C 
ATOM     17  C   UNL     1     -11.023   7.340  20.777  0.00  0.00    +0.000 C 
ATOM     18  H   UNL     1      -5.767   5.809  21.345  0.00  0.00    +0.000 HD
ATOM     19  H   UNL     1      -7.374   4.009  23.187  0.00  0.00    +0.000 HD
ATOM     20  H   UNL     1      -7.946   6.719  21.895  0.00  0.00    +0.000 HD
ATOM     21  H   UNL     1      -3.673   6.620  22.126  0.00  0.00    +0.000 HD
ATOM     22  H   UNL     1      -5.515   7.455  24.685  0.00  0.00    +0.000 HD
ATOM     23  H   UNL     1      -7.858   7.758  24.069  0.00  0.00    +0.000 HD
ATOM     24  H   UNL     1      -7.556   6.225  24.874  0.00  0.00    +0.000 HD
ATOM     25  H   UNL     1     -11.208   4.782  21.863  0.00  0.00    +0.000 HD
ATOM     26  H   UNL     1      -4.919   3.723  20.690  0.00  0.00    +0.000 HD
ATOM     27  H   UNL     1      -5.058   3.027  22.308  0.00  0.00    +0.000 HD
ATOM     28  H   UNL     1      -7.401   3.112  20.937  0.00  0.00    +0.000 HD
ATOM     29  H   UNL     1      -7.696   4.695  20.240  0.00  0.00    +0.000 HD
ATOM     30  H   UNL     1      -2.928   3.755  22.737  0.00  0.00    +0.000 HD
ATOM     31  H   UNL     1      -2.860   4.664  21.223  0.00  0.00    +0.000 HD
ATOM     32  H   UNL     1      -9.781   3.425  20.323  0.00  0.00    +0.000 HD
ATOM     33  H   UNL     1      -9.557   3.054  22.019  0.00  0.00    +0.000 HD
ATOM     34  H   UNL     1     -10.010   7.630  24.067  0.00  0.00    +0.000 HD
ATOM     35  H   UNL     1     -11.437   6.838  23.454  0.00  0.00    +0.000 HD
ATOM     36  H   UNL     1      -9.259   6.330  20.080  0.00  0.00    +0.000 HD
ATOM     37  H   UNL     1     -10.746   5.562  19.604  0.00  0.00    +0.000 HD
ATOM     38  H   UNL     1     -11.053   8.916  22.244  0.00  0.00    +0.000 HD
ATOM     39  H   UNL     1      -9.444   8.434  21.776  0.00  0.00    +0.000 HD
ATOM     40  H   UNL     1     -12.079   7.097  20.950  0.00  0.00    +0.000 HD
ENDROOT
BRANCH   1  41
ATOM     41  C   UNL     1      -5.185   4.752  24.661  0.00  0.00    +0.000 C 
ATOM     42  H   UNL     1      -4.760   5.223  25.553  0.00  0.00    +0.000 HD
ATOM     43  H   UNL     1      -6.210   4.459  24.910  0.00  0.00    +0.000 HD
ATOM     44  H   UNL     1      -4.632   3.821  24.508  0.00  0.00    +0.000 HD
ENDBRANCH   1  41
BRANCH   5  45
ATOM     45  C   UNL     1      -9.871   4.872  24.166  0.00  0.00    +0.000 C 
ATOM     46  H   UNL     1     -10.602   4.085  23.964  0.00  0.00    +0.000 HD
ATOM     47  H   UNL     1      -8.953   4.387  24.514  0.00  0.00    +0.000 HD
ATOM     48  H   UNL     1     -10.258   5.458  25.008  0.00  0.00    +0.000 HD
ENDBRANCH   5  45
BRANCH   7  49
ATOM     49  O   UNL     1      -5.677   7.963  22.722  0.00  0.00    +0.000 OA
ATOM     50  H   UNL     1      -5.059   7.580  22.077  0.00  0.00    +0.000 HD
ENDBRANCH   7  49
BRANCH  17  51
ATOM     51  O   UNL     1     -10.958   8.211  19.653  0.00  0.00    +0.000 OA
ATOM     52  H   UNL     1     -11.832   8.207  19.227  0.00  0.00    +0.000 HD
ENDBRANCH  17  51
BRANCH   6  53
ATOM     53  C   UNL     1      -2.617   6.118  23.913  0.00  0.00    +0.000 C 
ATOM     54  H   UNL     1      -2.950   5.798  24.907  0.00  0.00    +0.000 HD
BRANCH  53  55
ATOM     55  C   UNL     1      -2.353   7.627  23.976  0.00  0.00    +0.000 C 
ATOM     56  H   UNL     1      -2.631   8.132  23.048  0.00  0.00    +0.000 HD
ATOM     57  H   UNL     1      -1.288   7.842  24.071  0.00  0.00    +0.000 HD
ATOM     58  H   UNL     1      -2.913   8.112  24.782  0.00  0.00    +0.000 HD
ENDBRANCH  53  55
BRANCH  53  59
ATOM     59  C   UNL     1      -1.337   5.319  23.584  0.00  0.00    +0.000 C 
ATOM     60  H   UNL     1      -1.579   4.256  23.463  0.00  0.00    +0.000 HD
ATOM     61  H   UNL     1      -0.943   5.655  22.616  0.00  0.00    +0.000 HD
BRANCH  59  62
ATOM     62  C   UNL     1      -0.215   5.440  24.613  0.00  0.00    +0.000 C 
ATOM     63  H   UNL     1       0.611   4.793  24.289  0.00  0.00    +0.000 HD
ATOM     64  H   UNL     1       0.205   6.452  24.631  0.00  0.00    +0.000 HD
BRANCH  62  67
ATOM     65  O   UNL     1      -0.570   5.889  26.918  0.00  0.00    +0.000 OA
ATOM     66  O   UNL     1      -0.795   3.750  26.148  0.00  0.00    +0.000 OA
ATOM     67  C   UNL     1      -0.566   4.989  26.034  0.00  0.00    +0.000 C 
ENDBRANCH  62  67
ENDBRANCH  59  62
ENDBRANCH  53  59
ENDBRANCH   6  53
TORSDOF 9
BEGIN_RES LEU A  10
REMARK  2 active torsions:
REMARK  status: ('A' for Active; 'I' for Inactive)
REMARK    1  A    between atoms: CA   and  CB  
REMARK    2  A    between atoms: CB   and  CG  
ROOT
ATOM      1  CA  LEU A  10     -10.775  -4.871   5.898  1.00 25.14     0.177 C 
ENDROOT
BRANCH   1   2
ATOM      2  CB  LEU A  10     -12.191  -4.387   6.226  1.00 17.87     0.038 C 
BRANCH   2   3
ATOM      3  CG  LEU A  10     -12.395  -2.878   6.073  1.00 24.95    -0.020 C 
ATOM      4  CD2 LEU A  10     -13.674  -2.491   6.735  1.00 26.38     0.009 C 
ATOM      5  CD1 LEU A  10     -12.409  -2.478   4.608  1.00 28.12     0.009 C 
ENDBRANCH   2   3
ENDBRANCH   1   2
END_RES LEU A  10
BEGIN_RES CYS A  12
REMARK  2 active torsions:
REMARK  status: ('A' for Active; 'I' for Inactive)
REMARK    3  A    between atoms: CA   and  CB  
REMARK    4  A    between atoms: CB   and  SG  
ROOT
ATOM      6  CA  CYS A  12      -8.555   0.470   8.750  1.00 23.16     0.185 C 
ENDROOT
BRANCH   6   7
ATOM      7  CB  CYS A  12      -9.828   0.763   9.555  1.00 20.43     0.105 C 
BRANCH   7   8
ATOM      8  SG  CYS A  12     -10.955   2.004   8.847  1.00 24.64    -0.180 SA
ATOM      9  H04 CYS A  12     -10.243   3.031   8.366  1.00 24.64     0.101 HD
ENDBRANCH   7   8
ENDBRANCH   6   7
END_RES CYS A  12
BEGIN_RES GLN A  14
REMARK  3 active torsions:
REMARK  status: ('A' for Active; 'I' for Inactive)
REMARK    5  A    between atoms: CA   and  CB  
REMARK    6  A    between atoms: CB   and  CG  
REMARK    7  A    between atoms: CG   and  CD  
REMARK       I    between atoms: CD   and  NE2 
ROOT
ATOM     10  CA  GLN A  14      -4.645   5.402  11.377  1.00 10.43     0.177 C 
ENDROOT
BRANCH  10  11
ATOM     11  CB  GLN A  14      -5.541   5.549  12.608  1.00 14.45     0.044 C 
BRANCH  11  12
ATOM     12  CG  GLN A  14      -6.618   6.600  12.466  1.00 13.74     0.105 C 
BRANCH  12  13
ATOM     13  CD  GLN A  14      -6.050   7.989  12.301  1.00 16.29     0.215 C 
ATOM     14  NE2 GLN A  14      -6.661   8.774  11.440  1.00  8.57    -0.370 N 
ATOM     15  H06 GLN A  14      -6.327   9.715  11.290  1.00  8.57     0.159 HD
ATOM     16  H07 GLN A  14      -7.465   8.436  10.931  1.00  8.57     0.159 HD
ATOM     17  OE1 GLN A  14      -5.076   8.352  12.942  1.00 23.55    -0.274 OA
ENDBRANCH  12  13
ENDBRANCH  11  12
ENDBRANCH  10  11
END_RES GLN A  14
BEGIN_RES SER A  16
REMARK  2 active torsions:
REMARK  status: ('A' for Active; 'I' for Inactive)
REMARK    8  A    between atoms: CA   and  CB  
REMARK    9  A    between atoms: CB   and  OG  
ROOT
ATOM     18  CA  SER A  16      -1.305  10.019  14.282  1.00  2.34     0.200 C 
ENDROOT
BRANCH  18  19
ATOM     19  CB  SER A  16      -2.242   9.935  15.479  1.00  3.12     0.199 C 
BRANCH  19  20
ATOM     20  OG  SER A  16      -3.468   9.331  15.104  1.00  1.00    -0.398 OA
ATOM     21  H04 SER A  16      -4.186   9.728  15.603  1.00  1.00     0.209 HD
ENDBRANCH  19  20
ENDBRANCH  18  19
END_RES SER A  16
BEGIN_RES LEU A  32
REMARK  2 active torsions:
REMARK  status: ('A' for Active; 'I' for Inactive)
REMARK   10  A    between atoms: CA   and  CB  
REMARK   11  A    between atoms: CB   and  CG  
ROOT
ATOM     22  CA  LEU A  32     -10.272  -4.106   1.587  1.00 16.16     0.177 C 
ENDROOT
BRANCH  22  23
ATOM     23  CB  LEU A  32     -11.613  -3.858   0.880  1.00 12.35     0.038 C 
BRANCH  23  24
ATOM     24  CG  LEU A  32     -12.568  -5.061   1.022  1.00  9.77    -0.020 C 
ATOM     25  CD1 LEU A  32     -13.001  -5.221   2.460  1.00  4.35     0.009 C 
ATOM     26  CD2 LEU A  32     -13.780  -4.891   0.143  1.00 10.60     0.009 C 
ENDBRANCH  23  24
ENDBRANCH  22  23
END_RES LEU A  32
BEGIN_RES HIS A  38
REMARK  2 active torsions:
REMARK  status: ('A' for Active; 'I' for Inactive)
REMARK   12  A    between atoms: CA   and  CB  
REMARK   13  A    between atoms: CB   and  CG  
ROOT
ATOM     27  CA  HIS A  38     -10.959   4.941   1.621  1.00 16.94     0.182 C 
ENDROOT
BRANCH  27  28
ATOM     28  CB  HIS A  38     -11.810   4.840   2.881  1.00 15.47     0.095 C 
BRANCH  28  29
ATOM     29  CG  HIS A  38     -12.998   3.944   2.737  1.00 18.62     0.053 A 
ATOM     30  CD2 HIS A  38     -14.157   4.108   2.056  1.00 15.06     0.116 A 
ATOM     31  NE2 HIS A  38     -14.893   2.964   2.234  1.00 18.12    -0.359 N 
ATOM     32  CE1 HIS A  38     -14.213   2.129   2.997  1.00 14.78     0.207 A 
ATOM     33  H06 HIS A  38     -15.808   2.790   1.845  1.00 18.12     0.166 HD
ATOM     34  ND1 HIS A  38     -13.066   2.696   3.315  1.00 16.58    -0.247 NA
ENDBRANCH  28  29
ENDBRANCH  27  28
END_RES HIS A  38
BEGIN_RES TRP A  63
REMARK  2 active torsions:
REMARK  status: ('A' for Active; 'I' for Inactive)
REMARK   14  A    between atoms: CA   and  CB  
REMARK   15  A    between atoms: CB   and  CG  
ROOT
ATOM     35  CA  TRP A  63     -22.437   6.257   6.543  1.00 27.04     0.181 C 
ENDROOT
BRANCH  35  36
ATOM     36  CB  TRP A  63     -22.360   6.642   5.068  1.00 31.37     0.075 C 
BRANCH  36  37
ATOM     37  CG  TRP A  63     -20.953   6.792   4.530  1.00 34.37    -0.028 A 
ATOM     38  CD2 TRP A  63     -19.886   5.837   4.611  1.00 33.79    -0.002 A 
ATOM     39  CE3 TRP A  63     -19.750   4.579   5.203  1.00 32.99     0.014 A 
ATOM     40  CE2 TRP A  63     -18.786   6.380   3.912  1.00 35.84     0.042 A 
ATOM     41  CZ3 TRP A  63     -18.540   3.912   5.081  1.00 32.93     0.001 A 
ATOM     42  CH2 TRP A  63     -17.464   4.479   4.380  1.00 39.24     0.002 A 
ATOM     43  CZ2 TRP A  63     -17.568   5.709   3.788  1.00 37.99     0.030 A 
ATOM     44  NE1 TRP A  63     -19.170   7.603   3.433  1.00 37.98    -0.365 N 
ATOM     45  H06 TRP A  63     -18.592   8.229   2.891  1.00 37.98     0.165 HD
ATOM     46  CD1 TRP A  63     -20.469   7.841   3.811  1.00 38.16     0.096 A 
ENDBRANCH  36  37
ENDBRANCH  35  36
END_RES TRP A  63
BEGIN_RES LEU A  66
REMARK  2 active torsions:
REMARK  status: ('A' for Active; 'I' for Inactive)
REMARK   16  A    between atoms: CA   and  CB  
REMARK   17  A    between atoms: CB   and  CG  
ROOT
ATOM     47  CA  LEU A  66     -20.004   6.489  11.120  1.00 10.90     0.177 C 
ENDROOT
BRANCH  47  48
ATOM     48  CB  LEU A  66     -19.626   5.453  10.069  1.00 13.57     0.038 C 
BRANCH  48  49
ATOM     49  CG  LEU A  66     -19.372   4.026  10.553  1.00  8.73    -0.020 C 
ATOM     50  CD1 LEU A  66     -19.227   3.991  12.052  1.00 14.23     0.009 C 
ATOM     51  CD2 LEU A  66     -20.532   3.163  10.126  1.00  1.92     0.009 C 
ENDBRANCH  48  49
ENDBRANCH  47  48
END_RES LEU A  66
BEGIN_RES PHE A  70
REMARK  2 active torsions:
REMARK  status: ('A' for Active; 'I' for Inactive)
REMARK   18  A    between atoms: CA   and  CB  
REMARK   19  A    between atoms: CB   and  CG  
ROOT
ATOM     52  CA  PHE A  70     -14.974   9.434  13.165  1.00  8.78     0.180 C 
ENDROOT
BRANCH  52  53
ATOM     53  CB  PHE A  70     -14.707   9.132  11.681  1.00  6.33     0.073 C 
BRANCH  53  54
ATOM     54  CG  PHE A  70     -13.935   7.860  11.459  1.00  3.42    -0.056 A 
ATOM     55  CD1 PHE A  70     -13.688   7.387  10.179  1.00 13.88     0.007 A 
ATOM     56  CE1 PHE A  70     -13.007   6.173   9.980  1.00 12.71     0.001 A 
ATOM     57  CZ  PHE A  70     -12.568   5.427  11.074  1.00  4.21     0.000 A 
ATOM     58  CE2 PHE A  70     -12.806   5.890  12.355  1.00  2.83     0.001 A 
ATOM     59  CD2 PHE A  70     -13.487   7.104  12.543  1.00  1.00     0.007 A 
ENDBRANCH  53  54
ENDBRANCH  52  53
END_RES PHE A  70
BEGIN_RES TYR A  73
REMARK  3 active torsions:
REMARK  status: ('A' for Active; 'I' for Inactive)
REMARK   20  A    between atoms: CA   and  CB  
REMARK   21  A    between atoms: CB   and  CG  
REMARK   22  A    between atoms: CZ   and  OH  
ROOT
ATOM     60  CA  TYR A  73     -13.212  10.166  17.260  1.00 12.17     0.180 C 
ENDROOT
BRANCH  60  61
ATOM     61  CB  TYR A  73     -13.301   8.846  16.517  1.00 12.84     0.073 C 
BRANCH  61  62
ATOM     62  CG  TYR A  73     -13.488   7.679  17.422  1.00 15.89    -0.056 A 
ATOM     63  CD1 TYR A  73     -14.267   7.773  18.553  1.00 16.00     0.010 A 
ATOM     64  CE1 TYR A  73     -14.419   6.690  19.419  1.00 13.55     0.037 A 
ATOM     65  CZ  TYR A  73     -13.774   5.503  19.135  1.00 18.13     0.065 A 
ATOM     66  CE2 TYR A  73     -12.991   5.381  18.011  1.00 15.89     0.037 A 
ATOM     67  CD2 TYR A  73     -12.852   6.470  17.160  1.00 21.86     0.010 A 
BRANCH  65  68
ATOM     68  OH  TYR A  73     -13.914   4.421  19.970  1.00 12.12    -0.361 OA
ATOM     69  H08 TYR A  73     -14.808   4.078  19.904  1.00 12.12     0.217 HD
ENDBRANCH  65  68
ENDBRANCH  61  62
ENDBRANCH  60  61
END_RES TYR A  73
BEGIN_RES PHE A  77
REMARK  2 active torsions:
REMARK  status: ('A' for Active; 'I' for Inactive)
REMARK   23  A    between atoms: CA   and  CB  
REMARK   24  A    between atoms: CB   and  CG  
ROOT
ATOM     70  CA  PHE A  77      -8.400  10.581  20.110  1.00 17.17     0.180 C 
ENDROOT
BRANCH  70  71
ATOM     71  CB  PHE A  77      -8.228   9.750  18.851  1.00 10.44     0.073 C 
BRANCH  71  72
ATOM     72  CG  PHE A  77      -7.032   8.851  18.881  1.00  6.07    -0.056 A 
ATOM     73  CD2 PHE A  77      -7.095   7.622  19.497  1.00  9.61     0.007 A 
ATOM     74  CE2 PHE A  77      -5.990   6.780  19.528  1.00  1.00     0.001 A 
ATOM     75  CZ  PHE A  77      -4.804   7.174  18.930  1.00  1.92     0.000 A 
ATOM     76  CE1 PHE A  77      -4.725   8.399  18.308  1.00  9.25     0.001 A 
ATOM     77  CD1 PHE A  77      -5.841   9.235  18.286  1.00  9.63     0.007 A 
ENDBRANCH  71  72
ENDBRANCH  70  71
END_RES PHE A  77
BEGIN_RES LEU A  96
REMARK  2 active torsions:
REMARK  status: ('A' for Active; 'I' for Inactive)
REMARK   25  A    between atoms: CA   and  CB  
REMARK   26  A    between atoms: CB   and  CG  
ROOT
ATOM     78  CA  LEU A  96       0.717   6.481  17.359  1.00 16.08     0.177 C 
ENDROOT
BRANCH  78  79
ATOM     79  CB  LEU A  96      -0.370   7.101  18.230  1.00 18.83     0.038 C 
BRANCH  79  80
ATOM     80  CG  LEU A  96      -0.228   6.812  19.724  1.00 19.03    -0.020 C 
ATOM     81  CD1 LEU A  96      -1.393   7.438  20.455  1.00 28.17     0.009 C 
ATOM     82  CD2 LEU A  96      -0.248   5.323  19.978  1.00 22.01     0.009 C 
ENDBRANCH  79  80
ENDBRANCH  78  79
END_RES LEU A  96
BEGIN_RES VAL A  98
REMARK  1 active torsions:
REMARK  status: ('A' for Active; 'I' for Inactive)
REMARK   27  A    between atoms: CA   and  CB  
ROOT
ATOM     83  CA  VAL A  98      -3.928   2.082  14.897  1.00 19.83     0.180 C 
ENDROOT
BRANCH  83  84
ATOM     84  CB  VAL A  98      -5.203   2.807  15.281  1.00 17.87     0.009 C 
ATOM     85  CG2 VAL A  98      -4.880   4.191  15.782  1.00 29.90     0.012 C 
ATOM     86  CG1 VAL A  98      -5.940   2.011  16.337  1.00 14.79     0.012 C 
ENDBRANCH  83  84
END_RES VAL A  98
BEGIN_RES ASN A 112
REMARK  2 active torsions:
REMARK  status: ('A' for Active; 'I' for Inactive)
REMARK   28  A    between atoms: CA   and  CB  
REMARK   29  A    between atoms: CB   and  CG  
REMARK       I    between atoms: CG   and  ND2 
ROOT
ATOM     87  CA  ASN A 112     -11.790  -8.793  14.069  1.00 37.70     0.185 C 
ENDROOT
BRANCH  87  88
ATOM     88  CB  ASN A 112     -12.992  -7.945  14.465  1.00 26.24     0.137 C 
BRANCH  88  89
ATOM     89  CG  ASN A 112     -13.813  -8.563  15.574  1.00 21.77     0.217 C 
ATOM     90  ND2 ASN A 112     -14.963  -9.130  15.209  1.00  9.31    -0.370 N 
ATOM     91  H04 ASN A 112     -15.558  -9.558  15.904  1.00  9.31     0.159 HD
ATOM     92  H05 ASN A 112     -15.239  -9.131  14.237  1.00  9.31     0.159 HD
ATOM     93  OD1 ASN A 112     -13.426  -8.529  16.748  1.00 21.61    -0.274 OA
ENDBRANCH  88  89
ENDBRANCH  87  88
END_RES ASN A 112
BEGIN_RES PHE A 114
REMARK  2 active torsions:
REMARK  status: ('A' for Active; 'I' for Inactive)
REMARK   30  A    between atoms: CA   and  CB  
REMARK   31  A    between atoms: CB   and  CG  
ROOT
ATOM     94  CA  PHE A 114      -7.754  -3.619  17.012  1.00 26.06     0.180 C 
ENDROOT
BRANCH  94  95
ATOM     95  CB  PHE A 114      -8.890  -3.080  17.867  1.00 19.95     0.073 C 
BRANCH  95  96
ATOM     96  CG  PHE A 114      -9.029  -1.594  17.798  1.00 17.65    -0.056 A 
ATOM     97  CD1 PHE A 114      -7.996  -0.761  18.218  1.00 13.01     0.007 A 
ATOM     98  CE1 PHE A 114      -8.136   0.620  18.182  1.00  6.74     0.001 A 
ATOM     99  CZ  PHE A 114      -9.319   1.190  17.718  1.00  6.27     0.000 A 
ATOM    100  CE2 PHE A 114     -10.353   0.371  17.296  1.00 17.36     0.001 A 
ATOM    101  CD2 PHE A 114     -10.206  -1.020  17.337  1.00 18.39     0.007 A 
ENDBRANCH  95  96
ENDBRANCH  94  95
END_RES PHE A 114
BEGIN_RES VAL A 116
REMARK  1 active torsions:
REMARK  status: ('A' for Active; 'I' for Inactive)
REMARK   32  A    between atoms: CA   and  CB  
ROOT
ATOM    102  CA  VAL A 116      -2.467   0.283  18.565  1.00 13.48     0.180 C 
ENDROOT
BRANCH 102 103
ATOM    103  CB  VAL A 116      -3.101   1.238  19.599  1.00 20.86     0.009 C 
ATOM    104  CG1 VAL A 116      -3.123   2.661  19.035  1.00 25.01     0.012 C 
ATOM    105  CG2 VAL A 116      -4.485   0.771  19.985  1.00 25.34     0.012 C 
ENDBRANCH 102 103
END_RES VAL A 116
BEGIN_RES ILE A 123
REMARK  2 active torsions:
REMARK  status: ('A' for Active; 'I' for Inactive)
REMARK   33  A    between atoms: CA   and  CB  
REMARK   34  A    between atoms: CB   and  CG1 
ROOT
ATOM    106  CA  ILE A 123       1.557  -1.626  23.222  1.00 15.07     0.180 C 
ENDROOT
BRANCH 106 107
ATOM    107  CB  ILE A 123       1.697  -0.112  23.461  1.00 14.41     0.013 C 
ATOM    108  CG2 ILE A 123       3.091   0.204  23.975  1.00 18.35     0.012 C 
BRANCH 107 109
ATOM    109  CG1 ILE A 123       1.424   0.656  22.170  1.00 15.23     0.002 C 
ATOM    110  CD1 ILE A 123       0.219   1.561  22.247  1.00 14.67     0.005 C 
ENDBRANCH 107 109
ENDBRANCH 106 107
END_RES ILE A 123
BEGIN_RES LEU A 124
REMARK  2 active torsions:
REMARK  status: ('A' for Active; 'I' for Inactive)
REMARK   35  A    between atoms: CA   and  CB  
REMARK   36  A    between atoms: CB   and  CG  
ROOT
ATOM    111  CA  LEU A 124      -2.057  -2.686  23.524  1.00 11.86     0.177 C 
ENDROOT
BRANCH 111 112
ATOM    112  CB  LEU A 124      -2.698  -1.652  24.429  1.00 14.60     0.038 C 
BRANCH 112 113
ATOM    113  CG  LEU A 124      -2.627  -0.252  23.837  1.00 16.19    -0.020 C 
ATOM    114  CD1 LEU A 124      -4.052   0.215  23.483  1.00 22.07     0.009 C 
ATOM    115  CD2 LEU A 124      -1.959   0.676  24.821  1.00  9.12     0.009 C 
ENDBRANCH 112 113
ENDBRANCH 111 112
END_RES LEU A 124
BEGIN_RES PHE A 126
REMARK  2 active torsions:
REMARK  status: ('A' for Active; 'I' for Inactive)
REMARK   37  A    between atoms: CA   and  CB  
REMARK   38  A    between atoms: CB   and  CG  
ROOT
ATOM    116  CA  PHE A 126      -8.784  -4.792  22.233  1.00 23.15     0.180 C 
ENDROOT
BRANCH 116 117
ATOM    117  CB  PHE A 126      -9.823  -4.011  21.461  1.00 20.65     0.073 C 
BRANCH 117 118
ATOM    118  CG  PHE A 126     -10.961  -3.564  22.292  1.00 23.65    -0.056 A 
ATOM    119  CD2 PHE A 126     -10.797  -2.566  23.236  1.00 36.63     0.007 A 
ATOM    120  CE2 PHE A 126     -11.877  -2.141  24.022  1.00 36.27     0.001 A 
ATOM    121  CZ  PHE A 126     -13.124  -2.725  23.856  1.00 18.06     0.000 A 
ATOM    122  CE1 PHE A 126     -13.293  -3.719  22.913  1.00  5.50     0.001 A 
ATOM    123  CD1 PHE A 126     -12.213  -4.133  22.133  1.00 15.29     0.007 A 
ENDBRANCH 117 118
ENDBRANCH 116 117
END_RES PHE A 126
BEGIN_RES TRP A 131
REMARK  2 active torsions:
REMARK  status: ('A' for Active; 'I' for Inactive)
REMARK   39  A    between atoms: CA   and  CB  
REMARK   40  A    between atoms: CB   and  CG  
ROOT
ATOM    124  CA  TRP A 131      -8.096  -3.335  26.542  1.00 14.52     0.181 C 
ENDROOT
BRANCH 124 125
ATOM    125  CB  TRP A 131      -7.651  -1.877  26.607  1.00 13.06     0.075 C 
BRANCH 125 126
ATOM    126  CG  TRP A 131      -8.046  -1.053  25.402  1.00 16.97    -0.028 A 
ATOM    127  CD2 TRP A 131      -9.159  -0.160  25.308  1.00 11.34    -0.002 A 
ATOM    128  CE2 TRP A 131      -9.146   0.398  24.015  1.00  5.87     0.042 A 
ATOM    129  CE3 TRP A 131     -10.170   0.220  26.198  1.00  3.80     0.014 A 
ATOM    130  CZ2 TRP A 131     -10.104   1.320  23.589  1.00  1.35     0.030 A 
ATOM    131  NE1 TRP A 131      -8.074  -0.131  23.349  1.00 13.90    -0.365 N 
ATOM    132  CH2 TRP A 131     -11.083   1.676  24.483  1.00  1.00     0.002 A 
ATOM    133  CZ3 TRP A 131     -11.123   1.132  25.781  1.00  1.00     0.001 A 
ATOM    134  CD1 TRP A 131      -7.417  -1.001  24.188  1.00 17.22     0.096 A 
ATOM    135  H07 TRP A 131      -7.809   0.083  22.399  1.00 13.90     0.165 HD
ENDBRANCH 125 126
ENDBRANCH 124 125
END_RES TRP A 131
BEGIN_RES LEU A 148
REMARK  2 active torsions:
REMARK  status: ('A' for Active; 'I' for Inactive)
REMARK   41  A    between atoms: CA   and  CB  
REMARK   42  A    between atoms: CB   and  CG  
ROOT
ATOM    136  CA  LEU A 148      -9.018   3.259  29.295  1.00 16.99     0.177 C 
ENDROOT
BRANCH 136 137
ATOM    137  CB  LEU A 148      -8.166   2.574  28.236  1.00  6.39     0.038 C 
BRANCH 137 138
ATOM    138  CG  LEU A 148      -7.338   3.380  27.256  1.00  1.00    -0.020 C 
ATOM    139  CD2 LEU A 148      -7.876   4.777  27.146  1.00  1.00     0.009 C 
ATOM    140  CD1 LEU A 148      -7.383   2.683  25.909  1.00  2.71     0.009 C 
ENDBRANCH 137 138
ENDBRANCH 136 137
END_RES LEU A 148
BEGIN_RES THR A 154
REMARK  2 active torsions:
REMARK  status: ('A' for Active; 'I' for Inactive)
REMARK   43  A    between atoms: CA   and  CB  
REMARK   44  A    between atoms: CB   and  OG1 
ROOT
ATOM    141  CA  THR A 154     -15.990   3.959  24.426  1.00 20.45     0.205 C 
ENDROOT
BRANCH 141 142
ATOM    142  CB  THR A 154     -14.777   4.829  24.694  1.00 16.79     0.146 C 
ATOM    143  CG2 THR A 154     -13.675   4.512  23.701  1.00 20.24     0.042 C 
BRANCH 142 144
ATOM    144  OG1 THR A 154     -15.151   6.205  24.547  1.00 18.84    -0.393 OA
ATOM    145  H06 THR A 154     -14.730   6.726  25.234  1.00 18.84     0.210 HD
ENDBRANCH 142 144
ENDBRANCH 141 142
END_RES THR A 154
BEGIN_RES VAL A 158
REMARK  1 active torsions:
REMARK  status: ('A' for Active; 'I' for Inactive)
REMARK   45  A    between atoms: CA   and  CB  
ROOT
ATOM    146  CA  VAL A 158     -15.487  -0.189  19.892  1.00 15.49     0.180 C 
ENDROOT
BRANCH 146 147
ATOM    147  CB  VAL A 158     -14.291  -0.273  20.822  1.00  6.52     0.009 C 
ATOM    148  CG1 VAL A 158     -13.245  -1.214  20.271  1.00  1.00     0.012 C 
ATOM    149  CG2 VAL A 158     -13.725   1.102  21.001  1.00  5.99     0.012 C 
ENDBRANCH 146 147
END_RES VAL A 158
BEGIN_RES LEU A 161
REMARK  2 active torsions:
REMARK  status: ('A' for Active; 'I' for Inactive)
REMARK   46  A    between atoms: CA   and  CB  
REMARK   47  A    between atoms: CB   and  CG  
ROOT
ATOM    150  CA  LEU A 161     -18.031  -1.858  15.935  1.00 13.31     0.177 C 
ENDROOT
BRANCH 150 151
ATOM    151  CB  LEU A 161     -17.046  -0.706  16.001  1.00 14.13     0.038 C 
BRANCH 151 152
ATOM    152  CG  LEU A 161     -17.548   0.641  15.495  1.00 19.39    -0.020 C 
ATOM    153  CD2 LEU A 161     -17.481   0.690  13.987  1.00 27.75     0.009 C 
ATOM    154  CD1 LEU A 161     -16.695   1.731  16.085  1.00 18.59     0.009 C 
ENDBRANCH 151 152
ENDBRANCH 150 151
END_RES LEU A 161
BEGIN_RES GLN A 168
REMARK  3 active torsions:
REMARK  status: ('A' for Active; 'I' for Inactive)
REMARK   48  A    between atoms: CA   and  CB  
REMARK   49  A    between atoms: CB   and  CG  
REMARK   50  A    between atoms: CG   and  CD  
REMARK       I    between atoms: CD   and  NE2 
ROOT
ATOM    155  CA  GLN A 168     -22.035  -6.020   8.155  1.00 30.94     0.177 C 
ENDROOT
BRANCH 155 156
ATOM    156  CB  GLN A 168     -23.054  -5.218   8.946  1.00 41.76     0.044 C 
BRANCH 156 157
ATOM    157  CG  GLN A 168     -24.482  -5.435   8.525  1.00 61.20     0.105 C 
BRANCH 157 158
ATOM    158  CD  GLN A 168     -24.984  -4.317   7.632  1.00 75.49     0.215 C 
ATOM    159  NE2 GLN A 168     -24.834  -4.498   6.319  1.00 85.00    -0.370 N 
ATOM    160  H06 GLN A 168     -25.146  -3.788   5.672  1.00 85.00     0.159 HD
ATOM    161  H07 GLN A 168     -24.406  -5.346   5.971  1.00 85.00     0.159 HD
ATOM    162  OE1 GLN A 168     -25.498  -3.297   8.113  1.00 73.64    -0.274 OA
ENDBRANCH 157 158
ENDBRANCH 156 157
ENDBRANCH 155 156
END_RES GLN A 168
ENDMDL
MODEL 4
REMARK VINA RESULT:     -10.6      2.274      6.902
REMARK  Name = 9548661
REMARK  9 active torsions:
REMARK  status: ('A' for Active; 'I' for Inactive)
REMARK    1  A    between atoms: O_1  and  C_11
REMARK    2  A    between atoms: O_2  and  C_24
REMARK    3  A    between atoms: C_5  and  C_19
REMARK    4  A    between atoms: C_9  and  C_22
REMARK    5  A    between atoms: C_10  and  C_20
REMARK    6  A    between atoms: C_20  and  C_25
REMARK    7  A    between atoms: C_20  and  C_26
REMARK    8  A    between atoms: C_25  and  C_27
REMARK    9  A    between atoms: C_27  and  C_28
REMARK                            x       y       z     vdW  Elec       q    Type
REMARK                         _______ _______ _______ _____ _____    ______ ____
ROOT
ATOM      1  C   UNL     1     -12.644   1.958  14.024  0.00  0.00    +0.000 C 
ATOM      2  C   UNL     1     -14.015   2.608  13.720  0.00  0.00    +0.000 C 
ATOM      3  C   UNL     1     -14.270   2.795  12.220  0.00  0.00    +0.000 C 
ATOM      4  C   UNL     1     -14.214   1.400  11.517  0.00  0.00    +0.000 C 
ATOM      5  C   UNL     1     -14.512   1.506   9.973  0.00  0.00    +0.000 C 
ATOM      6  C   UNL     1     -12.703   1.992  15.573  0.00  0.00    +0.000 C 
ATOM      7  C   UNL     1     -12.611   0.558  13.376  0.00  0.00    +0.000 C 
ATOM      8  C   UNL     1     -12.905   0.634  11.863  0.00  0.00    +0.000 C 
ATOM      9  C   UNL     1     -15.881   2.236   9.756  0.00  0.00    +0.000 C 
ATOM     10  C   UNL     1     -14.044   3.835  14.629  0.00  0.00    +0.000 C 
ATOM     11  C   UNL     1     -15.612   3.494  11.967  0.00  0.00    +0.000 C 
ATOM     12  C   UNL     1     -13.281   3.390  15.890  0.00  0.00    +0.000 C 
ATOM     13  C   UNL     1     -15.941   3.591  10.480  0.00  0.00    +0.000 C 
ATOM     14  C   UNL     1     -14.583   0.113   9.283  0.00  0.00    +0.000 C 
ATOM     15  C   UNL     1     -17.091   1.366  10.156  0.00  0.00    +0.000 C 
ATOM     16  C   UNL     1     -15.774  -0.734   9.715  0.00  0.00    +0.000 C 
ATOM     17  C   UNL     1     -17.083   0.004   9.468  0.00  0.00    +0.000 C 
ATOM     18  H   UNL     1     -14.812   1.942  14.092  0.00  0.00    +0.000 HD
ATOM     19  H   UNL     1     -13.490   3.444  11.810  0.00  0.00    +0.000 HD
ATOM     20  H   UNL     1     -15.022   0.804  11.962  0.00  0.00    +0.000 HD
ATOM     21  H   UNL     1     -13.449   1.260  15.916  0.00  0.00    +0.000 HD
ATOM     22  H   UNL     1     -11.645   0.068  13.475  0.00  0.00    +0.000 HD
ATOM     23  H   UNL     1     -12.983  -0.392  11.485  0.00  0.00    +0.000 HD
ATOM     24  H   UNL     1     -12.053   1.095  11.354  0.00  0.00    +0.000 HD
ATOM     25  H   UNL     1     -15.992   2.443   8.681  0.00  0.00    +0.000 HD
ATOM     26  H   UNL     1     -15.067   4.139  14.871  0.00  0.00    +0.000 HD
ATOM     27  H   UNL     1     -13.545   4.692  14.163  0.00  0.00    +0.000 HD
ATOM     28  H   UNL     1     -15.589   4.509  12.384  0.00  0.00    +0.000 HD
ATOM     29  H   UNL     1     -16.416   2.966  12.492  0.00  0.00    +0.000 HD
ATOM     30  H   UNL     1     -12.500   4.122  16.122  0.00  0.00    +0.000 HD
ATOM     31  H   UNL     1     -13.956   3.344  16.752  0.00  0.00    +0.000 HD
ATOM     32  H   UNL     1     -16.937   4.037  10.359  0.00  0.00    +0.000 HD
ATOM     33  H   UNL     1     -15.242   4.291  10.005  0.00  0.00    +0.000 HD
ATOM     34  H   UNL     1     -13.659  -0.453   9.438  0.00  0.00    +0.000 HD
ATOM     35  H   UNL     1     -14.654   0.256   8.195  0.00  0.00    +0.000 HD
ATOM     36  H   UNL     1     -17.139   1.217  11.241  0.00  0.00    +0.000 HD
ATOM     37  H   UNL     1     -18.024   1.886   9.901  0.00  0.00    +0.000 HD
ATOM     38  H   UNL     1     -15.777  -1.679   9.157  0.00  0.00    +0.000 HD
ATOM     39  H   UNL     1     -15.689  -1.022  10.769  0.00  0.00    +0.000 HD
ATOM     40  H   UNL     1     -17.242   0.139   8.391  0.00  0.00    +0.000 HD
ENDROOT
BRANCH   1  41
ATOM     41  C   UNL     1     -11.437   2.783  13.502  0.00  0.00    +0.000 C 
ATOM     42  H   UNL     1     -11.589   3.149  12.481  0.00  0.00    +0.000 HD
ATOM     43  H   UNL     1     -11.247   3.658  14.131  0.00  0.00    +0.000 HD
ATOM     44  H   UNL     1     -10.507   2.208  13.490  0.00  0.00    +0.000 HD
ENDBRANCH   1  41
BRANCH   5  45
ATOM     45  C   UNL     1     -13.392   2.290   9.241  0.00  0.00    +0.000 C 
ATOM     46  H   UNL     1     -13.498   2.275   8.154  0.00  0.00    +0.000 HD
ATOM     47  H   UNL     1     -13.365   3.339   9.555  0.00  0.00    +0.000 HD
ATOM     48  H   UNL     1     -12.406   1.866   9.471  0.00  0.00    +0.000 HD
ENDBRANCH   5  45
BRANCH   7  49
ATOM     49  O   UNL     1     -13.580  -0.297  13.985  0.00  0.00    +0.000 OA
ATOM     50  H   UNL     1     -14.459   0.074  13.800  0.00  0.00    +0.000 HD
ENDBRANCH   7  49
BRANCH  17  51
ATOM     51  O   UNL     1     -18.169  -0.766   9.972  0.00  0.00    +0.000 OA
ATOM     52  H   UNL     1     -18.943  -0.181  10.028  0.00  0.00    +0.000 HD
ENDBRANCH  17  51
BRANCH   6  53
ATOM     53  C   UNL     1     -11.399   1.710  16.307  0.00  0.00    +0.000 C 
ATOM     54  H   UNL     1     -10.620   1.428  15.589  0.00  0.00    +0.000 HD
BRANCH  53  55
ATOM     55  C   UNL     1     -11.584   0.537  17.276  0.00  0.00    +0.000 C 
ATOM     56  H   UNL     1     -11.829   0.874  18.286  0.00  0.00    +0.000 HD
ATOM     57  H   UNL     1     -10.655  -0.017  17.413  0.00  0.00    +0.000 HD
ATOM     58  H   UNL     1     -12.387  -0.136  16.962  0.00  0.00    +0.000 HD
ENDBRANCH  53  55
BRANCH  53  59
ATOM     59  C   UNL     1     -10.911   2.986  17.027  0.00  0.00    +0.000 C 
ATOM     60  H   UNL     1     -11.589   3.820  16.815  0.00  0.00    +0.000 HD
ATOM     61  H   UNL     1     -10.954   2.825  18.113  0.00  0.00    +0.000 HD
BRANCH  59  62
ATOM     62  C   UNL     1      -9.490   3.425  16.677  0.00  0.00    +0.000 C 
ATOM     63  H   UNL     1      -9.043   3.869  17.577  0.00  0.00    +0.000 HD
ATOM     64  H   UNL     1      -8.853   2.567  16.436  0.00  0.00    +0.000 HD
BRANCH  62  67
ATOM     65  O   UNL     1     -10.241   5.408  15.609  0.00  0.00    +0.000 OA
ATOM     66  O   UNL     1      -8.424   4.306  14.771  0.00  0.00    +0.000 OA
ATOM     67  C   UNL     1      -9.375   4.491  15.584  0.00  0.00    +0.000 C 
ENDBRANCH  62  67
ENDBRANCH  59  62
ENDBRANCH  53  59
ENDBRANCH   6  53
TORSDOF 9
BEGIN_RES LEU A  10
REMARK  2 active torsions:
REMARK  status: ('A' for Active; 'I' for Inactive)
REMARK    1  A    between atoms: CA   and  CB  
REMARK    2  A    between atoms: CB   and  CG  
ROOT
ATOM      1  CA  LEU A  10     -10.775  -4.871   5.898  1.00 25.14     0.177 C 
ENDROOT
BRANCH   1   2
ATOM      2  CB  LEU A  10     -12.191  -4.387   6.226  1.00 17.87     0.038 C 
BRANCH   2   3
ATOM      3  CG  LEU A  10     -12.423  -2.895   5.979  1.00 24.95    -0.020 C 
ATOM      4  CD2 LEU A  10     -13.661  -2.470   6.693  1.00 26.38     0.009 C 
ATOM      5  CD1 LEU A  10     -12.534  -2.601   4.493  1.00 28.12     0.009 C 
ENDBRANCH   2   3
ENDBRANCH   1   2
END_RES LEU A  10
BEGIN_RES CYS A  12
REMARK  2 active torsions:
REMARK  status: ('A' for Active; 'I' for Inactive)
REMARK    3  A    between atoms: CA   and  CB  
REMARK    4  A    between atoms: CB   and  SG  
ROOT
ATOM      6  CA  CYS A  12      -8.555   0.470   8.750  1.00 23.16     0.185 C 
ENDROOT
BRANCH   6   7
ATOM      7  CB  CYS A  12      -9.828   0.763   9.555  1.00 20.43     0.105 C 
BRANCH   7   8
ATOM      8  SG  CYS A  12     -10.176   2.517   9.892  1.00 24.64    -0.180 SA
ATOM      9  H04 CYS A  12     -11.484   2.676  10.130  1.00 24.64     0.101 HD
ENDBRANCH   7   8
ENDBRANCH   6   7
END_RES CYS A  12
BEGIN_RES GLN A  14
REMARK  3 active torsions:
REMARK  status: ('A' for Active; 'I' for Inactive)
REMARK    5  A    between atoms: CA   and  CB  
REMARK    6  A    between atoms: CB   and  CG  
REMARK    7  A    between atoms: CG   and  CD  
REMARK       I    between atoms: CD   and  NE2 
ROOT
ATOM     10  CA  GLN A  14      -4.645   5.402  11.377  1.00 10.43     0.177 C 
ENDROOT
BRANCH  10  11
ATOM     11  CB  GLN A  14      -5.541   5.549  12.608  1.00 14.45     0.044 C 
BRANCH  11  12
ATOM     12  CG  GLN A  14      -6.557   6.663  12.502  1.00 13.74     0.105 C 
BRANCH  12  13
ATOM     13  CD  GLN A  14      -6.846   7.309  13.837  1.00 16.29     0.215 C 
ATOM     14  NE2 GLN A  14      -8.111   7.390  14.186  1.00  8.57    -0.370 N 
ATOM     15  H06 GLN A  14      -8.365   7.811  15.069  1.00  8.57     0.159 HD
ATOM     16  H07 GLN A  14      -8.829   7.031  13.573  1.00  8.57     0.159 HD
ATOM     17  OE1 GLN A  14      -5.942   7.726  14.544  1.00 23.55    -0.274 OA
ENDBRANCH  12  13
ENDBRANCH  11  12
ENDBRANCH  10  11
END_RES GLN A  14
BEGIN_RES SER A  16
REMARK  2 active torsions:
REMARK  status: ('A' for Active; 'I' for Inactive)
REMARK    8  A    between atoms: CA   and  CB  
REMARK    9  A    between atoms: CB   and  OG  
ROOT
ATOM     18  CA  SER A  16      -1.305  10.019  14.282  1.00  2.34     0.200 C 
ENDROOT
BRANCH  18  19
ATOM     19  CB  SER A  16      -2.242   9.935  15.479  1.00  3.12     0.199 C 
BRANCH  19  20
ATOM     20  OG  SER A  16      -3.467   9.329  15.104  1.00  1.00    -0.398 OA
ATOM     21  H04 SER A  16      -4.022   9.223  15.880  1.00  1.00     0.209 HD
ENDBRANCH  19  20
ENDBRANCH  18  19
END_RES SER A  16
BEGIN_RES LEU A  32
REMARK  2 active torsions:
REMARK  status: ('A' for Active; 'I' for Inactive)
REMARK   10  A    between atoms: CA   and  CB  
REMARK   11  A    between atoms: CB   and  CG  
ROOT
ATOM     22  CA  LEU A  32     -10.272  -4.106   1.587  1.00 16.16     0.177 C 
ENDROOT
BRANCH  22  23
ATOM     23  CB  LEU A  32     -11.613  -3.858   0.880  1.00 12.35     0.038 C 
BRANCH  23  24
ATOM     24  CG  LEU A  32     -12.513  -5.110   0.900  1.00  9.77    -0.020 C 
ATOM     25  CD1 LEU A  32     -13.017  -5.372   2.299  1.00  4.35     0.009 C 
ATOM     26  CD2 LEU A  32     -13.680  -4.948  -0.039  1.00 10.60     0.009 C 
ENDBRANCH  23  24
ENDBRANCH  22  23
END_RES LEU A  32
BEGIN_RES HIS A  38
REMARK  2 active torsions:
REMARK  status: ('A' for Active; 'I' for Inactive)
REMARK   12  A    between atoms: CA   and  CB  
REMARK   13  A    between atoms: CB   and  CG  
ROOT
ATOM     27  CA  HIS A  38     -10.959   4.941   1.621  1.00 16.94     0.182 C 
ENDROOT
BRANCH  27  28
ATOM     28  CB  HIS A  38     -11.810   4.840   2.881  1.00 15.47     0.095 C 
BRANCH  28  29
ATOM     29  CG  HIS A  38     -13.001   3.948   2.736  1.00 18.62     0.053 A 
ATOM     30  CD2 HIS A  38     -14.165   4.123   2.066  1.00 15.06     0.116 A 
ATOM     31  NE2 HIS A  38     -14.902   2.979   2.236  1.00 18.12    -0.359 N 
ATOM     32  CE1 HIS A  38     -14.217   2.133   2.982  1.00 14.78     0.207 A 
ATOM     33  H06 HIS A  38     -15.821   2.811   1.852  1.00 18.12     0.166 HD
ATOM     34  ND1 HIS A  38     -13.067   2.693   3.298  1.00 16.58    -0.247 NA
ENDBRANCH  28  29
ENDBRANCH  27  28
END_RES HIS A  38
BEGIN_RES TRP A  63
REMARK  2 active torsions:
REMARK  status: ('A' for Active; 'I' for Inactive)
REMARK   14  A    between atoms: CA   and  CB  
REMARK   15  A    between atoms: CB   and  CG  
ROOT
ATOM     35  CA  TRP A  63     -22.437   6.257   6.543  1.00 27.04     0.181 C 
ENDROOT
BRANCH  35  36
ATOM     36  CB  TRP A  63     -22.360   6.642   5.068  1.00 31.37     0.075 C 
BRANCH  36  37
ATOM     37  CG  TRP A  63     -20.953   6.799   4.531  1.00 34.37    -0.028 A 
ATOM     38  CD2 TRP A  63     -19.883   5.848   4.611  1.00 33.79    -0.002 A 
ATOM     39  CE3 TRP A  63     -19.743   4.588   5.198  1.00 32.99     0.014 A 
ATOM     40  CE2 TRP A  63     -18.784   6.397   3.914  1.00 35.84     0.042 A 
ATOM     41  CZ3 TRP A  63     -18.530   3.925   5.075  1.00 32.93     0.001 A 
ATOM     42  CH2 TRP A  63     -17.456   4.498   4.377  1.00 39.24     0.002 A 
ATOM     43  CZ2 TRP A  63     -17.564   5.731   3.789  1.00 37.99     0.030 A 
ATOM     44  NE1 TRP A  63     -19.172   7.619   3.439  1.00 37.98    -0.365 N 
ATOM     45  H06 TRP A  63     -18.596   8.249   2.899  1.00 37.98     0.165 HD
ATOM     46  CD1 TRP A  63     -20.472   7.851   3.817  1.00 38.16     0.096 A 
ENDBRANCH  36  37
ENDBRANCH  35  36
END_RES TRP A  63
BEGIN_RES LEU A  66
REMARK  2 active torsions:
REMARK  status: ('A' for Active; 'I' for Inactive)
REMARK   16  A    between atoms: CA   and  CB  
REMARK   17  A    between atoms: CB   and  CG  
ROOT
ATOM     47  CA  LEU A  66     -20.004   6.489  11.120  1.00 10.90     0.177 C 
ENDROOT
BRANCH  47  48
ATOM     48  CB  LEU A  66     -19.626   5.453  10.069  1.00 13.57     0.038 C 
BRANCH  48  49
ATOM     49  CG  LEU A  66     -19.502   4.002  10.531  1.00  8.73    -0.020 C 
ATOM     50  CD1 LEU A  66     -19.369   3.930  12.030  1.00 14.23     0.009 C 
ATOM     51  CD2 LEU A  66     -20.730   3.251  10.084  1.00  1.92     0.009 C 
ENDBRANCH  48  49
ENDBRANCH  47  48
END_RES LEU A  66
BEGIN_RES PHE A  70
REMARK  2 active torsions:
REMARK  status: ('A' for Active; 'I' for Inactive)
REMARK   18  A    between atoms: CA   and  CB  
REMARK   19  A    between atoms: CB   and  CG  
ROOT
ATOM     52  CA  PHE A  70     -14.974   9.434  13.165  1.00  8.78     0.180 C 
ENDROOT
BRANCH  52  53
ATOM     53  CB  PHE A  70     -14.707   9.132  11.681  1.00  6.33     0.073 C 
BRANCH  53  54
ATOM     54  CG  PHE A  70     -13.948   7.852  11.458  1.00  3.42    -0.056 A 
ATOM     55  CD1 PHE A  70     -13.382   7.162  12.519  1.00 13.88     0.007 A 
ATOM     56  CE1 PHE A  70     -12.634   5.992  12.299  1.00 12.71     0.001 A 
ATOM     57  CZ  PHE A  70     -12.452   5.509  11.003  1.00  4.21     0.000 A 
ATOM     58  CE2 PHE A  70     -13.013   6.188   9.937  1.00  2.83     0.001 A 
ATOM     59  CD2 PHE A  70     -13.759   7.356  10.168  1.00  1.00     0.007 A 
ENDBRANCH  53  54
ENDBRANCH  52  53
END_RES PHE A  70
BEGIN_RES TYR A  73
REMARK  3 active torsions:
REMARK  status: ('A' for Active; 'I' for Inactive)
REMARK   20  A    between atoms: CA   and  CB  
REMARK   21  A    between atoms: CB   and  CG  
REMARK   22  A    between atoms: CZ   and  OH  
ROOT
ATOM     60  CA  TYR A  73     -13.212  10.166  17.260  1.00 12.17     0.180 C 
ENDROOT
BRANCH  60  61
ATOM     61  CB  TYR A  73     -13.301   8.846  16.517  1.00 12.84     0.073 C 
BRANCH  61  62
ATOM     62  CG  TYR A  73     -13.164   7.663  17.410  1.00 15.89    -0.056 A 
ATOM     63  CD1 TYR A  73     -11.941   7.304  17.932  1.00 16.00     0.010 A 
ATOM     64  CE1 TYR A  73     -11.805   6.178  18.745  1.00 13.55     0.037 A 
ATOM     65  CZ  TYR A  73     -12.917   5.411  19.029  1.00 18.13     0.065 A 
ATOM     66  CE2 TYR A  73     -14.150   5.748  18.521  1.00 15.89     0.037 A 
ATOM     67  CD2 TYR A  73     -14.267   6.873  17.715  1.00 21.86     0.010 A 
BRANCH  65  68
ATOM     68  OH  TYR A  73     -12.807   4.302  19.831  1.00 12.12    -0.361 OA
ATOM     69  H08 TYR A  73     -12.938   3.510  19.304  1.00 12.12     0.217 HD
ENDBRANCH  65  68
ENDBRANCH  61  62
ENDBRANCH  60  61
END_RES TYR A  73
BEGIN_RES PHE A  77
REMARK  2 active torsions:
REMARK  status: ('A' for Active; 'I' for Inactive)
REMARK   23  A    between atoms: CA   and  CB  
REMARK   24  A    between atoms: CB   and  CG  
ROOT
ATOM     70  CA  PHE A  77      -8.400  10.581  20.110  1.00 17.17     0.180 C 
ENDROOT
BRANCH  70  71
ATOM     71  CB  PHE A  77      -8.228   9.750  18.851  1.00 10.44     0.073 C 
BRANCH  71  72
ATOM     72  CG  PHE A  77      -8.170   8.276  19.105  1.00  6.07    -0.056 A 
ATOM     73  CD2 PHE A  77      -8.614   7.754  20.298  1.00  9.61     0.007 A 
ATOM     74  CE2 PHE A  77      -8.566   6.386  20.542  1.00  1.00     0.001 A 
ATOM     75  CZ  PHE A  77      -8.069   5.529  19.574  1.00  1.92     0.000 A 
ATOM     76  CE1 PHE A  77      -7.623   6.035  18.374  1.00  9.25     0.001 A 
ATOM     77  CD1 PHE A  77      -7.675   7.410  18.144  1.00  9.63     0.007 A 
ENDBRANCH  71  72
ENDBRANCH  70  71
END_RES PHE A  77
BEGIN_RES LEU A  96
REMARK  2 active torsions:
REMARK  status: ('A' for Active; 'I' for Inactive)
REMARK   25  A    between atoms: CA   and  CB  
REMARK   26  A    between atoms: CB   and  CG  
ROOT
ATOM     78  CA  LEU A  96       0.717   6.481  17.359  1.00 16.08     0.177 C 
ENDROOT
BRANCH  78  79
ATOM     79  CB  LEU A  96      -0.370   7.101  18.230  1.00 18.83     0.038 C 
BRANCH  79  80
ATOM     80  CG  LEU A  96      -0.147   6.941  19.734  1.00 19.03    -0.020 C 
ATOM     81  CD1 LEU A  96       0.571   8.166  20.253  1.00 28.17     0.009 C 
ATOM     82  CD2 LEU A  96      -1.470   6.820  20.453  1.00 22.01     0.009 C 
ENDBRANCH  79  80
ENDBRANCH  78  79
END_RES LEU A  96
BEGIN_RES VAL A  98
REMARK  1 active torsions:
REMARK  status: ('A' for Active; 'I' for Inactive)
REMARK   27  A    between atoms: CA   and  CB  
ROOT
ATOM     83  CA  VAL A  98      -3.928   2.082  14.897  1.00 19.83     0.180 C 
ENDROOT
BRANCH  83  84
ATOM     84  CB  VAL A  98      -5.203   2.807  15.281  1.00 17.87     0.009 C 
ATOM     85  CG2 VAL A  98      -4.925   4.275  15.473  1.00 29.90     0.012 C 
ATOM     86  CG1 VAL A  98      -5.771   2.198  16.546  1.00 14.79     0.012 C 
ENDBRANCH  83  84
END_RES VAL A  98
BEGIN_RES ASN A 112
REMARK  2 active torsions:
REMARK  status: ('A' for Active; 'I' for Inactive)
REMARK   28  A    between atoms: CA   and  CB  
REMARK   29  A    between atoms: CB   and  CG  
REMARK       I    between atoms: CG   and  ND2 
ROOT
ATOM     87  CA  ASN A 112     -11.790  -8.793  14.069  1.00 37.70     0.185 C 
ENDROOT
BRANCH  87  88
ATOM     88  CB  ASN A 112     -12.992  -7.945  14.465  1.00 26.24     0.137 C 
BRANCH  88  89
ATOM     89  CG  ASN A 112     -13.812  -8.562  15.576  1.00 21.77     0.217 C 
ATOM     90  ND2 ASN A 112     -14.959  -9.135  15.212  1.00  9.31    -0.370 N 
ATOM     91  H04 ASN A 112     -15.553  -9.563  15.908  1.00  9.31     0.159 HD
ATOM     92  H05 ASN A 112     -15.234  -9.142  14.240  1.00  9.31     0.159 HD
ATOM     93  OD1 ASN A 112     -13.425  -8.521  16.750  1.00 21.61    -0.274 OA
ENDBRANCH  88  89
ENDBRANCH  87  88
END_RES ASN A 112
BEGIN_RES PHE A 114
REMARK  2 active torsions:
REMARK  status: ('A' for Active; 'I' for Inactive)
REMARK   30  A    between atoms: CA   and  CB  
REMARK   31  A    between atoms: CB   and  CG  
ROOT
ATOM     94  CA  PHE A 114      -7.754  -3.619  17.012  1.00 26.06     0.180 C 
ENDROOT
BRANCH  94  95
ATOM     95  CB  PHE A 114      -8.890  -3.080  17.867  1.00 19.95     0.073 C 
BRANCH  95  96
ATOM     96  CG  PHE A 114      -8.700  -1.655  18.275  1.00 17.65    -0.056 A 
ATOM     97  CD1 PHE A 114      -8.091  -0.743  17.417  1.00 13.01     0.007 A 
ATOM     98  CE1 PHE A 114      -7.887   0.574  17.806  1.00  6.74     0.001 A 
ATOM     99  CZ  PHE A 114      -8.295   0.999  19.067  1.00  6.27     0.000 A 
ATOM    100  CE2 PHE A 114      -8.904   0.101  19.929  1.00 17.36     0.001 A 
ATOM    101  CD2 PHE A 114      -9.105  -1.224  19.531  1.00 18.39     0.007 A 
ENDBRANCH  95  96
ENDBRANCH  94  95
END_RES PHE A 114
BEGIN_RES VAL A 116
REMARK  1 active torsions:
REMARK  status: ('A' for Active; 'I' for Inactive)
REMARK   32  A    between atoms: CA   and  CB  
ROOT
ATOM    102  CA  VAL A 116      -2.467   0.283  18.565  1.00 13.48     0.180 C 
ENDROOT
BRANCH 102 103
ATOM    103  CB  VAL A 116      -3.101   1.238  19.599  1.00 20.86     0.009 C 
ATOM    104  CG1 VAL A 116      -3.013   2.678  19.087  1.00 25.01     0.012 C 
ATOM    105  CG2 VAL A 116      -4.527   0.839  19.897  1.00 25.34     0.012 C 
ENDBRANCH 102 103
END_RES VAL A 116
BEGIN_RES ILE A 123
REMARK  2 active torsions:
REMARK  status: ('A' for Active; 'I' for Inactive)
REMARK   33  A    between atoms: CA   and  CB  
REMARK   34  A    between atoms: CB   and  CG1 
ROOT
ATOM    106  CA  ILE A 123       1.557  -1.626  23.222  1.00 15.07     0.180 C 
ENDROOT
BRANCH 106 107
ATOM    107  CB  ILE A 123       1.697  -0.112  23.461  1.00 14.41     0.013 C 
ATOM    108  CG2 ILE A 123       3.093   0.205  23.967  1.00 18.35     0.012 C 
BRANCH 107 109
ATOM    109  CG1 ILE A 123       1.416   0.656  22.172  1.00 15.23     0.002 C 
ATOM    110  CD1 ILE A 123       0.214   1.566  22.260  1.00 14.67     0.005 C 
ENDBRANCH 107 109
ENDBRANCH 106 107
END_RES ILE A 123
BEGIN_RES LEU A 124
REMARK  2 active torsions:
REMARK  status: ('A' for Active; 'I' for Inactive)
REMARK   35  A    between atoms: CA   and  CB  
REMARK   36  A    between atoms: CB   and  CG  
ROOT
ATOM    111  CA  LEU A 124      -2.057  -2.686  23.524  1.00 11.86     0.177 C 
ENDROOT
BRANCH 111 112
ATOM    112  CB  LEU A 124      -2.698  -1.652  24.429  1.00 14.60     0.038 C 
BRANCH 112 113
ATOM    113  CG  LEU A 124      -2.618  -0.251  23.842  1.00 16.19    -0.020 C 
ATOM    114  CD1 LEU A 124      -4.035   0.213  23.454  1.00 22.07     0.009 C 
ATOM    115  CD2 LEU A 124      -1.978   0.678  24.844  1.00  9.12     0.009 C 
ENDBRANCH 112 113
ENDBRANCH 111 112
END_RES LEU A 124
BEGIN_RES PHE A 126
REMARK  2 active torsions:
REMARK  status: ('A' for Active; 'I' for Inactive)
REMARK   37  A    between atoms: CA   and  CB  
REMARK   38  A    between atoms: CB   and  CG  
ROOT
ATOM    116  CA  PHE A 126      -8.784  -4.792  22.233  1.00 23.15     0.180 C 
ENDROOT
BRANCH 116 117
ATOM    117  CB  PHE A 126      -9.823  -4.011  21.461  1.00 20.65     0.073 C 
BRANCH 117 118
ATOM    118  CG  PHE A 126     -10.953  -3.549  22.295  1.00 23.65    -0.056 A 
ATOM    119  CD2 PHE A 126     -12.204  -4.128  22.171  1.00 36.63     0.007 A 
ATOM    120  CE2 PHE A 126     -13.275  -3.690  22.963  1.00 36.27     0.001 A 
ATOM    121  CZ  PHE A 126     -13.083  -2.668  23.881  1.00 18.06     0.000 A 
ATOM    122  CE1 PHE A 126     -11.836  -2.090  24.009  1.00  5.50     0.001 A 
ATOM    123  CD1 PHE A 126     -10.776  -2.534  23.219  1.00 15.29     0.007 A 
ENDBRANCH 117 118
ENDBRANCH 116 117
END_RES PHE A 126
BEGIN_RES TRP A 131
REMARK  2 active torsions:
REMARK  status: ('A' for Active; 'I' for Inactive)
REMARK   39  A    between atoms: CA   and  CB  
REMARK   40  A    between atoms: CB   and  CG  
ROOT
ATOM    124  CA  TRP A 131      -8.096  -3.335  26.542  1.00 14.52     0.181 C 
ENDROOT
BRANCH 124 125
ATOM    125  CB  TRP A 131      -7.651  -1.877  26.607  1.00 13.06     0.075 C 
BRANCH 125 126
ATOM    126  CG  TRP A 131      -8.035  -1.056  25.396  1.00 16.97    -0.028 A 
ATOM    127  CD2 TRP A 131      -9.120  -0.129  25.304  1.00 11.34    -0.002 A 
ATOM    128  CE2 TRP A 131      -9.106   0.412  24.004  1.00  5.87     0.042 A 
ATOM    129  CE3 TRP A 131     -10.107   0.295  26.202  1.00  3.80     0.014 A 
ATOM    130  CZ2 TRP A 131     -10.038   1.359  23.578  1.00  1.35     0.030 A 
ATOM    131  NE1 TRP A 131      -8.060  -0.160  23.332  1.00 13.90    -0.365 N 
ATOM    132  CH2 TRP A 131     -10.994   1.758  24.479  1.00  1.00     0.002 A 
ATOM    133  CZ3 TRP A 131     -11.035   1.231  25.784  1.00  1.00     0.001 A 
ATOM    134  CD1 TRP A 131      -7.420  -1.040  24.174  1.00 17.22     0.096 A 
ATOM    135  H07 TRP A 131      -7.800   0.033  22.376  1.00 13.90     0.165 HD
ENDBRANCH 125 126
ENDBRANCH 124 125
END_RES TRP A 131
BEGIN_RES LEU A 148
REMARK  2 active torsions:
REMARK  status: ('A' for Active; 'I' for Inactive)
REMARK   41  A    between atoms: CA   and  CB  
REMARK   42  A    between atoms: CB   and  CG  
ROOT
ATOM    136  CA  LEU A 148      -9.018   3.259  29.295  1.00 16.99     0.177 C 
ENDROOT
BRANCH 136 137
ATOM    137  CB  LEU A 148      -8.166   2.574  28.236  1.00  6.39     0.038 C 
BRANCH 137 138
ATOM    138  CG  LEU A 148      -8.016   3.166  26.849  1.00  1.00    -0.020 C 
ATOM    139  CD2 LEU A 148      -6.819   2.580  26.159  1.00  1.00     0.009 C 
ATOM    140  CD1 LEU A 148      -7.870   4.670  26.987  1.00  2.71     0.009 C 
ENDBRANCH 137 138
ENDBRANCH 136 137
END_RES LEU A 148
BEGIN_RES THR A 154
REMARK  2 active torsions:
REMARK  status: ('A' for Active; 'I' for Inactive)
REMARK   43  A    between atoms: CA   and  CB  
REMARK   44  A    between atoms: CB   and  OG1 
ROOT
ATOM    141  CA  THR A 154     -15.990   3.959  24.426  1.00 20.45     0.205 C 
ENDROOT
BRANCH 141 142
ATOM    142  CB  THR A 154     -14.777   4.829  24.694  1.00 16.79     0.146 C 
ATOM    143  CG2 THR A 154     -13.672   4.504  23.708  1.00 20.24     0.042 C 
BRANCH 142 144
ATOM    144  OG1 THR A 154     -15.148   6.204  24.537  1.00 18.84    -0.393 OA
ATOM    145  H06 THR A 154     -15.746   6.458  25.244  1.00 18.84     0.210 HD
ENDBRANCH 142 144
ENDBRANCH 141 142
END_RES THR A 154
BEGIN_RES VAL A 158
REMARK  1 active torsions:
REMARK  status: ('A' for Active; 'I' for Inactive)
REMARK   45  A    between atoms: CA   and  CB  
ROOT
ATOM    146  CA  VAL A 158     -15.487  -0.189  19.892  1.00 15.49     0.180 C 
ENDROOT
BRANCH 146 147
ATOM    147  CB  VAL A 158     -14.291  -0.273  20.822  1.00  6.52     0.009 C 
ATOM    148  CG1 VAL A 158     -13.257  -1.236  20.285  1.00  1.00     0.012 C 
ATOM    149  CG2 VAL A 158     -13.707   1.097  20.978  1.00  5.99     0.012 C 
ENDBRANCH 146 147
END_RES VAL A 158
BEGIN_RES LEU A 161
REMARK  2 active torsions:
REMARK  status: ('A' for Active; 'I' for Inactive)
REMARK   46  A    between atoms: CA   and  CB  
REMARK   47  A    between atoms: CB   and  CG  
ROOT
ATOM    150  CA  LEU A 161     -18.031  -1.858  15.935  1.00 13.31     0.177 C 
ENDROOT
BRANCH 150 151
ATOM    151  CB  LEU A 161     -17.046  -0.706  16.001  1.00 14.13     0.038 C 
BRANCH 151 152
ATOM    152  CG  LEU A 161     -17.456   0.574  15.284  1.00 19.39    -0.020 C 
ATOM    153  CD2 LEU A 161     -17.034   0.521  13.836  1.00 27.75     0.009 C 
ATOM    154  CD1 LEU A 161     -16.804   1.745  15.968  1.00 18.59     0.009 C 
ENDBRANCH 151 152
ENDBRANCH 150 151
END_RES LEU A 161
BEGIN_RES GLN A 168
REMARK  3 active torsions:
REMARK  status: ('A' for Active; 'I' for Inactive)
REMARK   48  A    between atoms: CA   and  CB  
REMARK   49  A    between atoms: CB   and  CG  
REMARK   50  A    between atoms: CG   and  CD  
REMARK       I    between atoms: CD   and  NE2 
ROOT
ATOM    155  CA  GLN A 168     -22.035  -6.020   8.155  1.00 30.94     0.177 C 
ENDROOT
BRANCH 155 156
ATOM    156  CB  GLN A 168     -23.054  -5.218   8.946  1.00 41.76     0.044 C 
BRANCH 156 157
ATOM    157  CG  GLN A 168     -24.481  -5.427   8.517  1.00 61.20     0.105 C 
BRANCH 157 158
ATOM    158  CD  GLN A 168     -24.979  -4.296   7.638  1.00 75.49     0.215 C 
ATOM    159  NE2 GLN A 168     -24.821  -4.459   6.323  1.00 85.00    -0.370 N 
ATOM    160  H06 GLN A 168     -25.130  -3.739   5.685  1.00 85.00     0.159 HD
ATOM    161  H07 GLN A 168     -24.392  -5.301   5.966  1.00 85.00     0.159 HD
ATOM    162  OE1 GLN A 168     -25.494  -3.283   8.131  1.00 73.64    -0.274 OA
ENDBRANCH 157 158
ENDBRANCH 156 157
ENDBRANCH 155 156
END_RES GLN A 168
ENDMDL
MODEL 5
REMARK VINA RESULT:     -10.2      2.145      6.287
REMARK  Name = 9548661
REMARK  9 active torsions:
REMARK  status: ('A' for Active; 'I' for Inactive)
REMARK    1  A    between atoms: O_1  and  C_11
REMARK    2  A    between atoms: O_2  and  C_24
REMARK    3  A    between atoms: C_5  and  C_19
REMARK    4  A    between atoms: C_9  and  C_22
REMARK    5  A    between atoms: C_10  and  C_20
REMARK    6  A    between atoms: C_20  and  C_25
REMARK    7  A    between atoms: C_20  and  C_26
REMARK    8  A    between atoms: C_25  and  C_27
REMARK    9  A    between atoms: C_27  and  C_28
REMARK                            x       y       z     vdW  Elec       q    Type
REMARK                         _______ _______ _______ _____ _____    ______ ____
ROOT
ATOM      1  C   UNL     1     -12.005   2.582  15.587  0.00  0.00    +0.000 C 
ATOM      2  C   UNL     1     -10.487   2.863  15.481  0.00  0.00    +0.000 C 
ATOM      3  C   UNL     1     -10.054   4.112  16.258  0.00  0.00    +0.000 C 
ATOM      4  C   UNL     1     -10.421   3.925  17.766  0.00  0.00    +0.000 C 
ATOM      5  C   UNL     1      -9.964   5.156  18.639  0.00  0.00    +0.000 C 
ATOM      6  C   UNL     1     -12.083   1.341  14.660  0.00  0.00    +0.000 C 
ATOM      7  C   UNL     1     -12.357   2.343  17.070  0.00  0.00    +0.000 C 
ATOM      8  C   UNL     1     -11.915   3.533  17.950  0.00  0.00    +0.000 C 
ATOM      9  C   UNL     1      -8.435   5.412  18.418  0.00  0.00    +0.000 C 
ATOM     10  C   UNL     1     -10.210   2.798  13.981  0.00  0.00    +0.000 C 
ATOM     11  C   UNL     1      -8.555   4.386  16.079  0.00  0.00    +0.000 C 
ATOM     12  C   UNL     1     -11.178   1.718  13.464  0.00  0.00    +0.000 C 
ATOM     13  C   UNL     1      -8.077   5.558  16.930  0.00  0.00    +0.000 C 
ATOM     14  C   UNL     1     -10.211   4.931  20.160  0.00  0.00    +0.000 C 
ATOM     15  C   UNL     1      -7.549   4.332  19.075  0.00  0.00    +0.000 C 
ATOM     16  C   UNL     1      -9.340   3.843  20.775  0.00  0.00    +0.000 C 
ATOM     17  C   UNL     1      -7.862   4.141  20.555  0.00  0.00    +0.000 C 
ATOM     18  H   UNL     1      -9.939   2.014  15.923  0.00  0.00    +0.000 HD
ATOM     19  H   UNL     1     -10.588   4.978  15.854  0.00  0.00    +0.000 HD
ATOM     20  H   UNL     1      -9.850   3.053  18.111  0.00  0.00    +0.000 HD
ATOM     21  H   UNL     1     -11.598   0.491  15.162  0.00  0.00    +0.000 HD
ATOM     22  H   UNL     1     -13.425   2.220  17.239  0.00  0.00    +0.000 HD
ATOM     23  H   UNL     1     -12.084   3.256  18.996  0.00  0.00    +0.000 HD
ATOM     24  H   UNL     1     -12.560   4.392  17.741  0.00  0.00    +0.000 HD
ATOM     25  H   UNL     1      -8.174   6.363  18.905  0.00  0.00    +0.000 HD
ATOM     26  H   UNL     1      -9.170   2.532  13.769  0.00  0.00    +0.000 HD
ATOM     27  H   UNL     1     -10.413   3.757  13.493  0.00  0.00    +0.000 HD
ATOM     28  H   UNL     1      -8.341   4.612  15.026  0.00  0.00    +0.000 HD
ATOM     29  H   UNL     1      -7.976   3.488  16.323  0.00  0.00    +0.000 HD
ATOM     30  H   UNL     1     -11.749   2.115  12.617  0.00  0.00    +0.000 HD
ATOM     31  H   UNL     1     -10.624   0.843  13.106  0.00  0.00    +0.000 HD
ATOM     32  H   UNL     1      -6.991   5.668  16.816  0.00  0.00    +0.000 HD
ATOM     33  H   UNL     1      -8.512   6.485  16.538  0.00  0.00    +0.000 HD
ATOM     34  H   UNL     1     -11.265   4.711  20.361  0.00  0.00    +0.000 HD
ATOM     35  H   UNL     1     -10.004   5.867  20.697  0.00  0.00    +0.000 HD
ATOM     36  H   UNL     1      -7.644   3.367  18.562  0.00  0.00    +0.000 HD
ATOM     37  H   UNL     1      -6.491   4.605  18.970  0.00  0.00    +0.000 HD
ATOM     38  H   UNL     1      -9.542   3.773  21.851  0.00  0.00    +0.000 HD
ATOM     39  H   UNL     1      -9.596   2.858  20.369  0.00  0.00    +0.000 HD
ATOM     40  H   UNL     1      -7.575   5.043  21.109  0.00  0.00    +0.000 HD
ENDROOT
BRANCH   1  41
ATOM     41  C   UNL     1     -12.890   3.734  15.039  0.00  0.00    +0.000 C 
ATOM     42  H   UNL     1     -13.337   3.494  14.069  0.00  0.00    +0.000 HD
ATOM     43  H   UNL     1     -13.712   3.968  15.722  0.00  0.00    +0.000 HD
ATOM     44  H   UNL     1     -12.334   4.665  14.903  0.00  0.00    +0.000 HD
ENDBRANCH   1  41
BRANCH   5  45
ATOM     45  C   UNL     1     -10.758   6.434  18.261  0.00  0.00    +0.000 C 
ATOM     46  H   UNL     1     -11.840   6.288  18.283  0.00  0.00    +0.000 HD
ATOM     47  H   UNL     1     -10.524   7.265  18.933  0.00  0.00    +0.000 HD
ATOM     48  H   UNL     1     -10.501   6.765  17.247  0.00  0.00    +0.000 HD
ENDBRANCH   5  45
BRANCH   7  49
ATOM     49  O   UNL     1     -11.717   1.160  17.552  0.00  0.00    +0.000 OA
ATOM     50  H   UNL     1     -11.657   0.534  16.812  0.00  0.00    +0.000 HD
ENDBRANCH   7  49
BRANCH  17  51
ATOM     51  O   UNL     1      -7.078   3.061  21.051  0.00  0.00    +0.000 OA
ATOM     52  H   UNL     1      -7.489   2.756  21.878  0.00  0.00    +0.000 HD
ENDBRANCH  17  51
BRANCH   6  53
ATOM     53  C   UNL     1     -13.476   0.901  14.233  0.00  0.00    +0.000 C 
ATOM     54  H   UNL     1     -14.231   1.547  14.696  0.00  0.00    +0.000 HD
BRANCH  53  55
ATOM     55  C   UNL     1     -13.741  -0.534  14.704  0.00  0.00    +0.000 C 
ATOM     56  H   UNL     1     -14.021  -0.574  15.759  0.00  0.00    +0.000 HD
ATOM     57  H   UNL     1     -12.837  -1.141  14.660  0.00  0.00    +0.000 HD
ATOM     58  H   UNL     1     -14.550  -1.012  14.143  0.00  0.00    +0.000 HD
ENDBRANCH  53  55
BRANCH  53  59
ATOM     59  C   UNL     1     -13.632   1.047  12.703  0.00  0.00    +0.000 C 
ATOM     60  H   UNL     1     -12.658   1.251  12.244  0.00  0.00    +0.000 HD
ATOM     61  H   UNL     1     -13.973   0.090  12.284  0.00  0.00    +0.000 HD
BRANCH  59  62
ATOM     62  C   UNL     1     -14.611   2.130  12.252  0.00  0.00    +0.000 C 
ATOM     63  H   UNL     1     -15.490   2.084  12.908  0.00  0.00    +0.000 HD
ATOM     64  H   UNL     1     -14.195   3.132  12.399  0.00  0.00    +0.000 HD
BRANCH  62  67
ATOM     65  O   UNL     1     -16.247   1.377  10.704  0.00  0.00    +0.000 OA
ATOM     66  O   UNL     1     -14.402   2.484   9.933  0.00  0.00    +0.000 OA
ATOM     67  C   UNL     1     -15.147   1.985  10.825  0.00  0.00    +0.000 C 
ENDBRANCH  62  67
ENDBRANCH  59  62
ENDBRANCH  53  59
ENDBRANCH   6  53
TORSDOF 9
BEGIN_RES LEU A  10
REMARK  2 active torsions:
REMARK  status: ('A' for Active; 'I' for Inactive)
REMARK    1  A    between atoms: CA   and  CB  
REMARK    2  A    between atoms: CB   and  CG  
ROOT
ATOM      1  CA  LEU A  10     -10.775  -4.871   5.898  1.00 25.14     0.177 C 
ENDROOT
BRANCH   1   2
ATOM      2  CB  LEU A  10     -12.191  -4.387   6.226  1.00 17.87     0.038 C 
BRANCH   2   3
ATOM      3  CG  LEU A  10     -12.368  -2.868   6.176  1.00 24.95    -0.020 C 
ATOM      4  CD2 LEU A  10     -13.655  -2.506   6.837  1.00 26.38     0.009 C 
ATOM      5  CD1 LEU A  10     -12.342  -2.365   4.743  1.00 28.12     0.009 C 
ENDBRANCH   2   3
ENDBRANCH   1   2
END_RES LEU A  10
BEGIN_RES CYS A  12
REMARK  2 active torsions:
REMARK  status: ('A' for Active; 'I' for Inactive)
REMARK    3  A    between atoms: CA   and  CB  
REMARK    4  A    between atoms: CB   and  SG  
ROOT
ATOM      6  CA  CYS A  12      -8.555   0.470   8.750  1.00 23.16     0.185 C 
ENDROOT
BRANCH   6   7
ATOM      7  CB  CYS A  12      -9.828   0.763   9.555  1.00 20.43     0.105 C 
BRANCH   7   8
ATOM      8  SG  CYS A  12     -10.931   2.039   8.872  1.00 24.64    -0.180 SA
ATOM      9  H04 CYS A  12     -10.557   3.242   9.325  1.00 24.64     0.101 HD
ENDBRANCH   7   8
ENDBRANCH   6   7
END_RES CYS A  12
BEGIN_RES GLN A  14
REMARK  3 active torsions:
REMARK  status: ('A' for Active; 'I' for Inactive)
REMARK    5  A    between atoms: CA   and  CB  
REMARK    6  A    between atoms: CB   and  CG  
REMARK    7  A    between atoms: CG   and  CD  
REMARK       I    between atoms: CD   and  NE2 
ROOT
ATOM     10  CA  GLN A  14      -4.645   5.402  11.377  1.00 10.43     0.177 C 
ENDROOT
BRANCH  10  11
ATOM     11  CB  GLN A  14      -5.541   5.549  12.608  1.00 14.45     0.044 C 
BRANCH  11  12
ATOM     12  CG  GLN A  14      -6.616   6.601  12.466  1.00 13.74     0.105 C 
BRANCH  12  13
ATOM     13  CD  GLN A  14      -6.047   7.990  12.301  1.00 16.29     0.215 C 
ATOM     14  NE2 GLN A  14      -6.646   8.769  11.427  1.00  8.57    -0.370 N 
ATOM     15  H06 GLN A  14      -6.310   9.709  11.275  1.00  8.57     0.159 HD
ATOM     16  H07 GLN A  14      -7.443   8.428  10.908  1.00  8.57     0.159 HD
ATOM     17  OE1 GLN A  14      -5.082   8.357  12.953  1.00 23.55    -0.274 OA
ENDBRANCH  12  13
ENDBRANCH  11  12
ENDBRANCH  10  11
END_RES GLN A  14
BEGIN_RES SER A  16
REMARK  2 active torsions:
REMARK  status: ('A' for Active; 'I' for Inactive)
REMARK    8  A    between atoms: CA   and  CB  
REMARK    9  A    between atoms: CB   and  OG  
ROOT
ATOM     18  CA  SER A  16      -1.305  10.019  14.282  1.00  2.34     0.200 C 
ENDROOT
BRANCH  18  19
ATOM     19  CB  SER A  16      -2.242   9.935  15.479  1.00  3.12     0.199 C 
BRANCH  19  20
ATOM     20  OG  SER A  16      -3.467   9.331  15.104  1.00  1.00    -0.398 OA
ATOM     21  H04 SER A  16      -3.403   8.379  15.217  1.00  1.00     0.209 HD
ENDBRANCH  19  20
ENDBRANCH  18  19
END_RES SER A  16
BEGIN_RES LEU A  32
REMARK  2 active torsions:
REMARK  status: ('A' for Active; 'I' for Inactive)
REMARK   10  A    between atoms: CA   and  CB  
REMARK   11  A    between atoms: CB   and  CG  
ROOT
ATOM     22  CA  LEU A  32     -10.272  -4.106   1.587  1.00 16.16     0.177 C 
ENDROOT
BRANCH  22  23
ATOM     23  CB  LEU A  32     -11.613  -3.858   0.880  1.00 12.35     0.038 C 
BRANCH  23  24
ATOM     24  CG  LEU A  32     -12.810  -4.289   1.752  1.00  9.77    -0.020 C 
ATOM     25  CD1 LEU A  32     -13.988  -4.658   0.881  1.00  4.35     0.009 C 
ATOM     26  CD2 LEU A  32     -12.442  -5.457   2.629  1.00 10.60     0.009 C 
ENDBRANCH  23  24
ENDBRANCH  22  23
END_RES LEU A  32
BEGIN_RES HIS A  38
REMARK  2 active torsions:
REMARK  status: ('A' for Active; 'I' for Inactive)
REMARK   12  A    between atoms: CA   and  CB  
REMARK   13  A    between atoms: CB   and  CG  
ROOT
ATOM     27  CA  HIS A  38     -10.959   4.941   1.621  1.00 16.94     0.182 C 
ENDROOT
BRANCH  27  28
ATOM     28  CB  HIS A  38     -11.810   4.840   2.881  1.00 15.47     0.095 C 
BRANCH  28  29
ATOM     29  CG  HIS A  38     -12.995   3.940   2.739  1.00 18.62     0.053 A 
ATOM     30  CD2 HIS A  38     -14.153   4.098   2.055  1.00 15.06     0.116 A 
ATOM     31  NE2 HIS A  38     -14.887   2.954   2.236  1.00 18.12    -0.359 N 
ATOM     32  CE1 HIS A  38     -14.206   2.124   3.003  1.00 14.78     0.207 A 
ATOM     33  H06 HIS A  38     -15.801   2.775   1.846  1.00 18.12     0.166 HD
ATOM     34  ND1 HIS A  38     -13.062   2.694   3.322  1.00 16.58    -0.247 NA
ENDBRANCH  28  29
ENDBRANCH  27  28
END_RES HIS A  38
BEGIN_RES TRP A  63
REMARK  2 active torsions:
REMARK  status: ('A' for Active; 'I' for Inactive)
REMARK   14  A    between atoms: CA   and  CB  
REMARK   15  A    between atoms: CB   and  CG  
ROOT
ATOM     35  CA  TRP A  63     -22.437   6.257   6.543  1.00 27.04     0.181 C 
ENDROOT
BRANCH  35  36
ATOM     36  CB  TRP A  63     -22.360   6.642   5.068  1.00 31.37     0.075 C 
BRANCH  36  37
ATOM     37  CG  TRP A  63     -20.953   6.815   4.535  1.00 34.37    -0.028 A 
ATOM     38  CD2 TRP A  63     -19.879   5.866   4.599  1.00 33.79    -0.002 A 
ATOM     39  CE3 TRP A  63     -19.734   4.597   5.163  1.00 32.99     0.014 A 
ATOM     40  CE2 TRP A  63     -18.782   6.432   3.912  1.00 35.84     0.042 A 
ATOM     41  CZ3 TRP A  63     -18.519   3.942   5.030  1.00 32.93     0.001 A 
ATOM     42  CH2 TRP A  63     -17.446   4.532   4.342  1.00 39.24     0.002 A 
ATOM     43  CZ2 TRP A  63     -17.559   5.774   3.777  1.00 37.99     0.030 A 
ATOM     44  NE1 TRP A  63     -19.175   7.662   3.460  1.00 37.98    -0.365 N 
ATOM     45  H06 TRP A  63     -18.601   8.304   2.932  1.00 37.98     0.165 HD
ATOM     46  CD1 TRP A  63     -20.477   7.882   3.840  1.00 38.16     0.096 A 
ENDBRANCH  36  37
ENDBRANCH  35  36
END_RES TRP A  63
BEGIN_RES LEU A  66
REMARK  2 active torsions:
REMARK  status: ('A' for Active; 'I' for Inactive)
REMARK   16  A    between atoms: CA   and  CB  
REMARK   17  A    between atoms: CB   and  CG  
ROOT
ATOM     47  CA  LEU A  66     -20.004   6.489  11.120  1.00 10.90     0.177 C 
ENDROOT
BRANCH  47  48
ATOM     48  CB  LEU A  66     -19.626   5.453  10.069  1.00 13.57     0.038 C 
BRANCH  48  49
ATOM     49  CG  LEU A  66     -18.608   4.387  10.472  1.00  8.73    -0.020 C 
ATOM     50  CD1 LEU A  66     -17.211   4.827  10.123  1.00 14.23     0.009 C 
ATOM     51  CD2 LEU A  66     -18.722   4.155  11.957  1.00  1.92     0.009 C 
ENDBRANCH  48  49
ENDBRANCH  47  48
END_RES LEU A  66
BEGIN_RES PHE A  70
REMARK  2 active torsions:
REMARK  status: ('A' for Active; 'I' for Inactive)
REMARK   18  A    between atoms: CA   and  CB  
REMARK   19  A    between atoms: CB   and  CG  
ROOT
ATOM     52  CA  PHE A  70     -14.974   9.434  13.165  1.00  8.78     0.180 C 
ENDROOT
BRANCH  52  53
ATOM     53  CB  PHE A  70     -14.707   9.132  11.681  1.00  6.33     0.073 C 
BRANCH  53  54
ATOM     54  CG  PHE A  70     -13.964   7.843  11.457  1.00  3.42    -0.056 A 
ATOM     55  CD1 PHE A  70     -13.776   7.338  10.179  1.00 13.88     0.007 A 
ATOM     56  CE1 PHE A  70     -13.121   6.110   9.981  1.00 12.71     0.001 A 
ATOM     57  CZ  PHE A  70     -12.650   5.381  11.073  1.00  4.21     0.000 A 
ATOM     58  CE2 PHE A  70     -12.829   5.875  12.351  1.00  2.83     0.001 A 
ATOM     59  CD2 PHE A  70     -13.485   7.104  12.539  1.00  1.00     0.007 A 
ENDBRANCH  53  54
ENDBRANCH  52  53
END_RES PHE A  70
BEGIN_RES TYR A  73
REMARK  3 active torsions:
REMARK  status: ('A' for Active; 'I' for Inactive)
REMARK   20  A    between atoms: CA   and  CB  
REMARK   21  A    between atoms: CB   and  CG  
REMARK   22  A    between atoms: CZ   and  OH  
ROOT
ATOM     60  CA  TYR A  73     -13.212  10.166  17.260  1.00 12.17     0.180 C 
ENDROOT
BRANCH  60  61
ATOM     61  CB  TYR A  73     -13.301   8.846  16.517  1.00 12.84     0.073 C 
BRANCH  61  62
ATOM     62  CG  TYR A  73     -13.839   7.740  17.355  1.00 15.89    -0.056 A 
ATOM     63  CD1 TYR A  73     -14.015   7.897  18.712  1.00 16.00     0.010 A 
ATOM     64  CE1 TYR A  73     -14.490   6.852  19.504  1.00 13.55     0.037 A 
ATOM     65  CZ  TYR A  73     -14.788   5.638  18.917  1.00 18.13     0.065 A 
ATOM     66  CE2 TYR A  73     -14.622   5.456  17.564  1.00 15.89     0.037 A 
ATOM     67  CD2 TYR A  73     -14.149   6.508  16.789  1.00 21.86     0.010 A 
BRANCH  65  68
ATOM     68  OH  TYR A  73     -15.262   4.598  19.677  1.00 12.12    -0.361 OA
ATOM     69  H08 TYR A  73     -14.851   3.778  19.391  1.00 12.12     0.217 HD
ENDBRANCH  65  68
ENDBRANCH  61  62
ENDBRANCH  60  61
END_RES TYR A  73
BEGIN_RES PHE A  77
REMARK  2 active torsions:
REMARK  status: ('A' for Active; 'I' for Inactive)
REMARK   23  A    between atoms: CA   and  CB  
REMARK   24  A    between atoms: CB   and  CG  
ROOT
ATOM     70  CA  PHE A  77      -8.400  10.581  20.110  1.00 17.17     0.180 C 
ENDROOT
BRANCH  70  71
ATOM     71  CB  PHE A  77      -8.228   9.750  18.851  1.00 10.44     0.073 C 
BRANCH  71  72
ATOM     72  CG  PHE A  77      -7.070   8.804  18.907  1.00  6.07    -0.056 A 
ATOM     73  CD2 PHE A  77      -6.821   8.069  20.044  1.00  9.61     0.007 A 
ATOM     74  CE2 PHE A  77      -5.749   7.186  20.104  1.00  1.00     0.001 A 
ATOM     75  CZ  PHE A  77      -4.916   7.035  19.008  1.00  1.92     0.000 A 
ATOM     76  CE1 PHE A  77      -5.152   7.761  17.863  1.00  9.25     0.001 A 
ATOM     77  CD1 PHE A  77      -6.230   8.645  17.817  1.00  9.63     0.007 A 
ENDBRANCH  71  72
ENDBRANCH  70  71
END_RES PHE A  77
BEGIN_RES LEU A  96
REMARK  2 active torsions:
REMARK  status: ('A' for Active; 'I' for Inactive)
REMARK   25  A    between atoms: CA   and  CB  
REMARK   26  A    between atoms: CB   and  CG  
ROOT
ATOM     78  CA  LEU A  96       0.717   6.481  17.359  1.00 16.08     0.177 C 
ENDROOT
BRANCH  78  79
ATOM     79  CB  LEU A  96      -0.370   7.101  18.230  1.00 18.83     0.038 C 
BRANCH  79  80
ATOM     80  CG  LEU A  96      -0.147   6.940  19.734  1.00 19.03    -0.020 C 
ATOM     81  CD1 LEU A  96       0.573   8.163  20.253  1.00 28.17     0.009 C 
ATOM     82  CD2 LEU A  96      -1.471   6.823  20.453  1.00 22.01     0.009 C 
ENDBRANCH  79  80
ENDBRANCH  78  79
END_RES LEU A  96
BEGIN_RES VAL A  98
REMARK  1 active torsions:
REMARK  status: ('A' for Active; 'I' for Inactive)
REMARK   27  A    between atoms: CA   and  CB  
ROOT
ATOM     83  CA  VAL A  98      -3.928   2.082  14.897  1.00 19.83     0.180 C 
ENDROOT
BRANCH  83  84
ATOM     84  CB  VAL A  98      -5.203   2.807  15.281  1.00 17.87     0.009 C 
ATOM     85  CG2 VAL A  98      -4.922   4.272  15.489  1.00 29.90     0.012 C 
ATOM     86  CG1 VAL A  98      -5.780   2.187  16.536  1.00 14.79     0.012 C 
ENDBRANCH  83  84
END_RES VAL A  98
BEGIN_RES ASN A 112
REMARK  2 active torsions:
REMARK  status: ('A' for Active; 'I' for Inactive)
REMARK   28  A    between atoms: CA   and  CB  
REMARK   29  A    between atoms: CB   and  CG  
REMARK       I    between atoms: CG   and  ND2 
ROOT
ATOM     87  CA  ASN A 112     -11.790  -8.793  14.069  1.00 37.70     0.185 C 
ENDROOT
BRANCH  87  88
ATOM     88  CB  ASN A 112     -12.992  -7.945  14.465  1.00 26.24     0.137 C 
BRANCH  88  89
ATOM     89  CG  ASN A 112     -13.816  -8.565  15.571  1.00 21.77     0.217 C 
ATOM     90  ND2 ASN A 112     -14.966  -9.129  15.202  1.00  9.31    -0.370 N 
ATOM     91  H04 ASN A 112     -15.563  -9.559  15.894  1.00  9.31     0.159 HD
ATOM     92  H05 ASN A 112     -15.240  -9.127  14.229  1.00  9.31     0.159 HD
ATOM     93  OD1 ASN A 112     -13.430  -8.535  16.745  1.00 21.61    -0.274 OA
ENDBRANCH  88  89
ENDBRANCH  87  88
END_RES ASN A 112
BEGIN_RES PHE A 114
REMARK  2 active torsions:
REMARK  status: ('A' for Active; 'I' for Inactive)
REMARK   30  A    between atoms: CA   and  CB  
REMARK   31  A    between atoms: CB   and  CG  
ROOT
ATOM     94  CA  PHE A 114      -7.754  -3.619  17.012  1.00 26.06     0.180 C 
ENDROOT
BRANCH  94  95
ATOM     95  CB  PHE A 114      -8.890  -3.080  17.867  1.00 19.95     0.073 C 
BRANCH  95  96
ATOM     96  CG  PHE A 114      -8.787  -1.613  18.132  1.00 17.65    -0.056 A 
ATOM     97  CD1 PHE A 114      -8.533  -0.718  17.097  1.00 13.01     0.007 A 
ATOM     98  CE1 PHE A 114      -8.408   0.643  17.347  1.00  6.74     0.001 A 
ATOM     99  CZ  PHE A 114      -8.540   1.128  18.645  1.00  6.27     0.000 A 
ATOM    100  CE2 PHE A 114      -8.793   0.247  19.683  1.00 17.36     0.001 A 
ATOM    101  CD2 PHE A 114      -8.917  -1.123  19.424  1.00 18.39     0.007 A 
ENDBRANCH  95  96
ENDBRANCH  94  95
END_RES PHE A 114
BEGIN_RES VAL A 116
REMARK  1 active torsions:
REMARK  status: ('A' for Active; 'I' for Inactive)
REMARK   32  A    between atoms: CA   and  CB  
ROOT
ATOM    102  CA  VAL A 116      -2.467   0.283  18.565  1.00 13.48     0.180 C 
ENDROOT
BRANCH 102 103
ATOM    103  CB  VAL A 116      -3.101   1.238  19.599  1.00 20.86     0.009 C 
ATOM    104  CG1 VAL A 116      -3.011   2.679  19.088  1.00 25.01     0.012 C 
ATOM    105  CG2 VAL A 116      -4.528   0.841  19.894  1.00 25.34     0.012 C 
ENDBRANCH 102 103
END_RES VAL A 116
BEGIN_RES ILE A 123
REMARK  2 active torsions:
REMARK  status: ('A' for Active; 'I' for Inactive)
REMARK   33  A    between atoms: CA   and  CB  
REMARK   34  A    between atoms: CB   and  CG1 
ROOT
ATOM    106  CA  ILE A 123       1.557  -1.626  23.222  1.00 15.07     0.180 C 
ENDROOT
BRANCH 106 107
ATOM    107  CB  ILE A 123       1.697  -0.112  23.461  1.00 14.41     0.013 C 
ATOM    108  CG2 ILE A 123       3.087   0.202  23.985  1.00 18.35     0.012 C 
BRANCH 107 109
ATOM    109  CG1 ILE A 123       1.435   0.655  22.168  1.00 15.23     0.002 C 
ATOM    110  CD1 ILE A 123       0.194   1.514  22.213  1.00 14.67     0.005 C 
ENDBRANCH 107 109
ENDBRANCH 106 107
END_RES ILE A 123
BEGIN_RES LEU A 124
REMARK  2 active torsions:
REMARK  status: ('A' for Active; 'I' for Inactive)
REMARK   35  A    between atoms: CA   and  CB  
REMARK   36  A    between atoms: CB   and  CG  
ROOT
ATOM    111  CA  LEU A 124      -2.057  -2.686  23.524  1.00 11.86     0.177 C 
ENDROOT
BRANCH 111 112
ATOM    112  CB  LEU A 124      -2.698  -1.652  24.429  1.00 14.60     0.038 C 
BRANCH 112 113
ATOM    113  CG  LEU A 124      -2.621  -0.251  23.841  1.00 16.19    -0.020 C 
ATOM    114  CD1 LEU A 124      -4.039   0.207  23.449  1.00 22.07     0.009 C 
ATOM    115  CD2 LEU A 124      -1.986   0.680  24.842  1.00  9.12     0.009 C 
ENDBRANCH 112 113
ENDBRANCH 111 112
END_RES LEU A 124
BEGIN_RES PHE A 126
REMARK  2 active torsions:
REMARK  status: ('A' for Active; 'I' for Inactive)
REMARK   37  A    between atoms: CA   and  CB  
REMARK   38  A    between atoms: CB   and  CG  
ROOT
ATOM    116  CA  PHE A 126      -8.784  -4.792  22.233  1.00 23.15     0.180 C 
ENDROOT
BRANCH 116 117
ATOM    117  CB  PHE A 126      -9.823  -4.011  21.461  1.00 20.65     0.073 C 
BRANCH 117 118
ATOM    118  CG  PHE A 126     -10.949  -3.541  22.297  1.00 23.65    -0.056 A 
ATOM    119  CD2 PHE A 126     -10.767  -2.527  23.221  1.00 36.63     0.007 A 
ATOM    120  CE2 PHE A 126     -11.835  -2.082  24.011  1.00 36.27     0.001 A 
ATOM    121  CZ  PHE A 126     -13.087  -2.660  23.871  1.00 18.06     0.000 A 
ATOM    122  CE1 PHE A 126     -13.273  -3.671  22.949  1.00  5.50     0.001 A 
ATOM    123  CD1 PHE A 126     -12.205  -4.106  22.164  1.00 15.29     0.007 A 
ENDBRANCH 117 118
ENDBRANCH 116 117
END_RES PHE A 126
BEGIN_RES TRP A 131
REMARK  2 active torsions:
REMARK  status: ('A' for Active; 'I' for Inactive)
REMARK   39  A    between atoms: CA   and  CB  
REMARK   40  A    between atoms: CB   and  CG  
ROOT
ATOM    124  CA  TRP A 131      -8.096  -3.335  26.542  1.00 14.52     0.181 C 
ENDROOT
BRANCH 124 125
ATOM    125  CB  TRP A 131      -7.651  -1.877  26.607  1.00 13.06     0.075 C 
BRANCH 125 126
ATOM    126  CG  TRP A 131      -8.024  -1.059  25.391  1.00 16.97    -0.028 A 
ATOM    127  CD2 TRP A 131      -9.100  -0.122  25.292  1.00 11.34    -0.002 A 
ATOM    128  CE2 TRP A 131      -9.078   0.412  23.989  1.00  5.87     0.042 A 
ATOM    129  CE3 TRP A 131     -10.084   0.317  26.185  1.00  3.80     0.014 A 
ATOM    130  CZ2 TRP A 131     -10.000   1.366  23.556  1.00  1.35     0.030 A 
ATOM    131  NE1 TRP A 131      -8.037  -0.174  23.322  1.00 13.90    -0.365 N 
ATOM    132  CH2 TRP A 131     -10.954   1.779  24.454  1.00  1.00     0.002 A 
ATOM    133  CZ3 TRP A 131     -11.002   1.261  25.761  1.00  1.00     0.001 A 
ATOM    134  CD1 TRP A 131      -7.408  -1.056  24.170  1.00 17.22     0.096 A 
ATOM    135  H07 TRP A 131      -7.773   0.011  22.365  1.00 13.90     0.165 HD
ENDBRANCH 125 126
ENDBRANCH 124 125
END_RES TRP A 131
BEGIN_RES LEU A 148
REMARK  2 active torsions:
REMARK  status: ('A' for Active; 'I' for Inactive)
REMARK   41  A    between atoms: CA   and  CB  
REMARK   42  A    between atoms: CB   and  CG  
ROOT
ATOM    136  CA  LEU A 148      -9.018   3.259  29.295  1.00 16.99     0.177 C 
ENDROOT
BRANCH 136 137
ATOM    137  CB  LEU A 148      -8.166   2.574  28.236  1.00  6.39     0.038 C 
BRANCH 137 138
ATOM    138  CG  LEU A 148      -7.539   3.364  27.105  1.00  1.00    -0.020 C 
ATOM    139  CD2 LEU A 148      -8.602   4.034  26.286  1.00  1.00     0.009 C 
ATOM    140  CD1 LEU A 148      -6.729   2.408  26.249  1.00  2.71     0.009 C 
ENDBRANCH 137 138
ENDBRANCH 136 137
END_RES LEU A 148
BEGIN_RES THR A 154
REMARK  2 active torsions:
REMARK  status: ('A' for Active; 'I' for Inactive)
REMARK   43  A    between atoms: CA   and  CB  
REMARK   44  A    between atoms: CB   and  OG1 
ROOT
ATOM    141  CA  THR A 154     -15.990   3.959  24.426  1.00 20.45     0.205 C 
ENDROOT
BRANCH 141 142
ATOM    142  CB  THR A 154     -14.777   4.829  24.694  1.00 16.79     0.146 C 
ATOM    143  CG2 THR A 154     -13.670   4.502  23.710  1.00 20.24     0.042 C 
BRANCH 142 144
ATOM    144  OG1 THR A 154     -15.147   6.204  24.534  1.00 18.84    -0.393 OA
ATOM    145  H06 THR A 154     -15.087   6.653  25.380  1.00 18.84     0.210 HD
ENDBRANCH 142 144
ENDBRANCH 141 142
END_RES THR A 154
BEGIN_RES VAL A 158
REMARK  1 active torsions:
REMARK  status: ('A' for Active; 'I' for Inactive)
REMARK   45  A    between atoms: CA   and  CB  
ROOT
ATOM    146  CA  VAL A 158     -15.487  -0.189  19.892  1.00 15.49     0.180 C 
ENDROOT
BRANCH 146 147
ATOM    147  CB  VAL A 158     -14.291  -0.273  20.822  1.00  6.52     0.009 C 
ATOM    148  CG1 VAL A 158     -13.256  -1.233  20.283  1.00  1.00     0.012 C 
ATOM    149  CG2 VAL A 158     -13.710   1.098  20.981  1.00  5.99     0.012 C 
ENDBRANCH 146 147
END_RES VAL A 158
BEGIN_RES LEU A 161
REMARK  2 active torsions:
REMARK  status: ('A' for Active; 'I' for Inactive)
REMARK   46  A    between atoms: CA   and  CB  
REMARK   47  A    between atoms: CB   and  CG  
ROOT
ATOM    150  CA  LEU A 161     -18.031  -1.858  15.935  1.00 13.31     0.177 C 
ENDROOT
BRANCH 150 151
ATOM    151  CB  LEU A 161     -17.046  -0.706  16.001  1.00 14.13     0.038 C 
BRANCH 151 152
ATOM    152  CG  LEU A 161     -17.518   0.620  15.417  1.00 19.39    -0.020 C 
ATOM    153  CD2 LEU A 161     -17.504   0.560  13.908  1.00 27.75     0.009 C 
ATOM    154  CD1 LEU A 161     -16.606   1.716  15.897  1.00 18.59     0.009 C 
ENDBRANCH 151 152
ENDBRANCH 150 151
END_RES LEU A 161
BEGIN_RES GLN A 168
REMARK  3 active torsions:
REMARK  status: ('A' for Active; 'I' for Inactive)
REMARK   48  A    between atoms: CA   and  CB  
REMARK   49  A    between atoms: CB   and  CG  
REMARK   50  A    between atoms: CG   and  CD  
REMARK       I    between atoms: CD   and  NE2 
ROOT
ATOM    155  CA  GLN A 168     -22.035  -6.020   8.155  1.00 30.94     0.177 C 
ENDROOT
BRANCH 155 156
ATOM    156  CB  GLN A 168     -23.054  -5.218   8.946  1.00 41.76     0.044 C 
BRANCH 156 157
ATOM    157  CG  GLN A 168     -24.482  -5.431   8.521  1.00 61.20     0.105 C 
BRANCH 157 158
ATOM    158  CD  GLN A 168     -24.981  -4.306   7.635  1.00 75.49     0.215 C 
ATOM    159  NE2 GLN A 168     -24.826  -4.478   6.320  1.00 85.00    -0.370 N 
ATOM    160  H06 GLN A 168     -25.136  -3.763   5.678  1.00 85.00     0.159 HD
ATOM    161  H07 GLN A 168     -24.397  -5.322   5.969  1.00 85.00     0.159 HD
ATOM    162  OE1 GLN A 168     -25.496  -3.290   8.121  1.00 73.64    -0.274 OA
ENDBRANCH 157 158
ENDBRANCH 156 157
ENDBRANCH 155 156
END_RES GLN A 168
ENDMDL
MODEL 6
REMARK VINA RESULT:     -10.0      1.860      4.965
REMARK  Name = 9548661
REMARK  9 active torsions:
REMARK  status: ('A' for Active; 'I' for Inactive)
REMARK    1  A    between atoms: O_1  and  C_11
REMARK    2  A    between atoms: O_2  and  C_24
REMARK    3  A    between atoms: C_5  and  C_19
REMARK    4  A    between atoms: C_9  and  C_22
REMARK    5  A    between atoms: C_10  and  C_20
REMARK    6  A    between atoms: C_20  and  C_25
REMARK    7  A    between atoms: C_20  and  C_26
REMARK    8  A    between atoms: C_25  and  C_27
REMARK    9  A    between atoms: C_27  and  C_28
REMARK                            x       y       z     vdW  Elec       q    Type
REMARK                         _______ _______ _______ _____ _____    ______ ____
ROOT
ATOM      1  C   UNL     1      -9.612   4.824  18.099  0.00  0.00    +0.000 C 
ATOM      2  C   UNL     1      -9.615   6.212  18.781  0.00  0.00    +0.000 C 
ATOM      3  C   UNL     1      -9.897   6.138  20.287  0.00  0.00    +0.000 C 
ATOM      4  C   UNL     1      -8.803   5.253  20.966  0.00  0.00    +0.000 C 
ATOM      5  C   UNL     1      -9.001   5.166  22.527  0.00  0.00    +0.000 C 
ATOM      6  C   UNL     1      -9.376   5.279  16.635  0.00  0.00    +0.000 C 
ATOM      7  C   UNL     1      -8.495   3.969  18.732  0.00  0.00    +0.000 C 
ATOM      8  C   UNL     1      -8.663   3.872  20.263  0.00  0.00    +0.000 C 
ATOM      9  C   UNL     1      -9.063   6.613  23.125  0.00  0.00    +0.000 C 
ATOM     10  C   UNL     1     -10.541   7.048  17.901  0.00  0.00    +0.000 C 
ATOM     11  C   UNL     1      -9.948   7.539  20.912  0.00  0.00    +0.000 C 
ATOM     12  C   UNL     1     -10.297   6.511  16.479  0.00  0.00    +0.000 C 
ATOM     13  C   UNL     1     -10.116   7.488  22.427  0.00  0.00    +0.000 C 
ATOM     14  C   UNL     1      -7.850   4.391  23.232  0.00  0.00    +0.000 C 
ATOM     15  C   UNL     1      -7.691   7.320  23.115  0.00  0.00    +0.000 C 
ATOM     16  C   UNL     1      -6.504   5.101  23.184  0.00  0.00    +0.000 C 
ATOM     17  C   UNL     1      -6.603   6.494  23.793  0.00  0.00    +0.000 C 
ATOM     18  H   UNL     1      -8.613   6.662  18.672  0.00  0.00    +0.000 HD
ATOM     19  H   UNL     1     -10.882   5.686  20.437  0.00  0.00    +0.000 HD
ATOM     20  H   UNL     1      -7.847   5.763  20.789  0.00  0.00    +0.000 HD
ATOM     21  H   UNL     1      -8.344   5.647  16.540  0.00  0.00    +0.000 HD
ATOM     22  H   UNL     1      -8.482   2.946  18.361  0.00  0.00    +0.000 HD
ATOM     23  H   UNL     1      -7.785   3.356  20.665  0.00  0.00    +0.000 HD
ATOM     24  H   UNL     1      -9.531   3.244  20.490  0.00  0.00    +0.000 HD
ATOM     25  H   UNL     1      -9.361   6.534  24.181  0.00  0.00    +0.000 HD
ATOM     26  H   UNL     1     -10.312   8.116  17.965  0.00  0.00    +0.000 HD
ATOM     27  H   UNL     1     -11.591   6.917  18.183  0.00  0.00    +0.000 HD
ATOM     28  H   UNL     1     -10.787   8.106  20.489  0.00  0.00    +0.000 HD
ATOM     29  H   UNL     1      -9.041   8.099  20.657  0.00  0.00    +0.000 HD
ATOM     30  H   UNL     1     -11.257   6.258  16.014  0.00  0.00    +0.000 HD
ATOM     31  H   UNL     1      -9.821   7.275  15.854  0.00  0.00    +0.000 HD
ATOM     32  H   UNL     1     -10.079   8.509  22.829  0.00  0.00    +0.000 HD
ATOM     33  H   UNL     1     -11.119   7.112  22.663  0.00  0.00    +0.000 HD
ATOM     34  H   UNL     1      -7.744   3.381  22.821  0.00  0.00    +0.000 HD
ATOM     35  H   UNL     1      -8.113   4.245  24.290  0.00  0.00    +0.000 HD
ATOM     36  H   UNL     1      -7.371   7.563  22.095  0.00  0.00    +0.000 HD
ATOM     37  H   UNL     1      -7.769   8.290  23.624  0.00  0.00    +0.000 HD
ATOM     38  H   UNL     1      -5.757   4.515  23.735  0.00  0.00    +0.000 HD
ATOM     39  H   UNL     1      -6.125   5.159  22.158  0.00  0.00    +0.000 HD
ATOM     40  H   UNL     1      -6.816   6.421  24.867  0.00  0.00    +0.000 HD
ENDROOT
BRANCH   1  41
ATOM     41  C   UNL     1     -10.961   4.066  18.227  0.00  0.00    +0.000 C 
ATOM     42  H   UNL     1     -11.751   4.687  18.662  0.00  0.00    +0.000 HD
ATOM     43  H   UNL     1     -11.322   3.722  17.253  0.00  0.00    +0.000 HD
ATOM     44  H   UNL     1     -10.886   3.174  18.856  0.00  0.00    +0.000 HD
ENDBRANCH   1  41
BRANCH   5  45
ATOM     45  C   UNL     1     -10.308   4.409  22.882  0.00  0.00    +0.000 C 
ATOM     46  H   UNL     1     -10.968   4.979  23.541  0.00  0.00    +0.000 HD
ATOM     47  H   UNL     1     -10.880   4.153  21.985  0.00  0.00    +0.000 HD
ATOM     48  H   UNL     1     -10.084   3.465  23.395  0.00  0.00    +0.000 HD
ENDBRANCH   5  45
BRANCH   7  49
ATOM     49  O   UNL     1      -7.213   4.533  18.451  0.00  0.00    +0.000 OA
ATOM     50  H   UNL     1      -7.331   5.206  17.760  0.00  0.00    +0.000 HD
ENDBRANCH   7  49
BRANCH  17  51
ATOM     51  O   UNL     1      -5.359   7.171  23.645  0.00  0.00    +0.000 OA
ATOM     52  H   UNL     1      -5.370   7.939  24.241  0.00  0.00    +0.000 HD
ENDBRANCH  17  51
BRANCH   6  53
ATOM     53  C   UNL     1      -9.600   4.230  15.555  0.00  0.00    +0.000 C 
ATOM     54  H   UNL     1      -9.680   3.236  16.009  0.00  0.00    +0.000 HD
BRANCH  53  55
ATOM     55  C   UNL     1      -8.409   4.205  14.591  0.00  0.00    +0.000 C 
ATOM     56  H   UNL     1      -8.686   4.535  13.587  0.00  0.00    +0.000 HD
ATOM     57  H   UNL     1      -8.046   3.189  14.431  0.00  0.00    +0.000 HD
ATOM     58  H   UNL     1      -7.593   4.853  14.924  0.00  0.00    +0.000 HD
ENDBRANCH  53  55
BRANCH  53  59
ATOM     59  C   UNL     1     -10.933   4.501  14.823  0.00  0.00    +0.000 C 
ATOM     60  H   UNL     1     -11.440   5.364  15.271  0.00  0.00    +0.000 HD
ATOM     61  H   UNL     1     -10.720   4.780  13.781  0.00  0.00    +0.000 HD
BRANCH  59  62
ATOM     62  C   UNL     1     -11.912   3.328  14.802  0.00  0.00    +0.000 C 
ATOM     63  H   UNL     1     -11.813   2.790  15.754  0.00  0.00    +0.000 HD
ATOM     64  H   UNL     1     -12.951   3.674  14.774  0.00  0.00    +0.000 HD
BRANCH  62  67
ATOM     65  O   UNL     1     -11.044   2.684  12.687  0.00  0.00    +0.000 OA
ATOM     66  O   UNL     1     -12.157   1.144  13.956  0.00  0.00    +0.000 OA
ATOM     67  C   UNL     1     -11.673   2.285  13.706  0.00  0.00    +0.000 C 
ENDBRANCH  62  67
ENDBRANCH  59  62
ENDBRANCH  53  59
ENDBRANCH   6  53
TORSDOF 9
BEGIN_RES LEU A  10
REMARK  2 active torsions:
REMARK  status: ('A' for Active; 'I' for Inactive)
REMARK    1  A    between atoms: CA   and  CB  
REMARK    2  A    between atoms: CB   and  CG  
ROOT
ATOM      1  CA  LEU A  10     -10.775  -4.871   5.898  1.00 25.14     0.177 C 
ENDROOT
BRANCH   1   2
ATOM      2  CB  LEU A  10     -12.191  -4.387   6.226  1.00 17.87     0.038 C 
BRANCH   2   3
ATOM      3  CG  LEU A  10     -12.355  -2.866   6.230  1.00 24.95    -0.020 C 
ATOM      4  CD2 LEU A  10     -12.843  -2.432   7.570  1.00 26.38     0.009 C 
ATOM      5  CD1 LEU A  10     -13.315  -2.420   5.140  1.00 28.12     0.009 C 
ENDBRANCH   2   3
ENDBRANCH   1   2
END_RES LEU A  10
BEGIN_RES CYS A  12
REMARK  2 active torsions:
REMARK  status: ('A' for Active; 'I' for Inactive)
REMARK    3  A    between atoms: CA   and  CB  
REMARK    4  A    between atoms: CB   and  SG  
ROOT
ATOM      6  CA  CYS A  12      -8.555   0.470   8.750  1.00 23.16     0.185 C 
ENDROOT
BRANCH   6   7
ATOM      7  CB  CYS A  12      -9.828   0.763   9.555  1.00 20.43     0.105 C 
BRANCH   7   8
ATOM      8  SG  CYS A  12     -11.063   1.823   8.742  1.00 24.64    -0.180 SA
ATOM      9  H04 CYS A  12     -10.514   2.406   7.668  1.00 24.64     0.101 HD
ENDBRANCH   7   8
ENDBRANCH   6   7
END_RES CYS A  12
BEGIN_RES GLN A  14
REMARK  3 active torsions:
REMARK  status: ('A' for Active; 'I' for Inactive)
REMARK    5  A    between atoms: CA   and  CB  
REMARK    6  A    between atoms: CB   and  CG  
REMARK    7  A    between atoms: CG   and  CD  
REMARK       I    between atoms: CD   and  NE2 
ROOT
ATOM     10  CA  GLN A  14      -4.645   5.402  11.377  1.00 10.43     0.177 C 
ENDROOT
BRANCH  10  11
ATOM     11  CB  GLN A  14      -5.541   5.549  12.608  1.00 14.45     0.044 C 
BRANCH  11  12
ATOM     12  CG  GLN A  14      -6.598   6.621  12.477  1.00 13.74     0.105 C 
BRANCH  12  13
ATOM     13  CD  GLN A  14      -6.004   8.004  12.345  1.00 16.29     0.215 C 
ATOM     14  NE2 GLN A  14      -6.575   8.806  11.473  1.00  8.57    -0.370 N 
ATOM     15  H06 GLN A  14      -6.222   9.743  11.343  1.00  8.57     0.159 HD
ATOM     16  H07 GLN A  14      -7.367   8.485  10.934  1.00  8.57     0.159 HD
ATOM     17  OE1 GLN A  14      -5.047   8.345  13.022  1.00 23.55    -0.274 OA
ENDBRANCH  12  13
ENDBRANCH  11  12
ENDBRANCH  10  11
END_RES GLN A  14
BEGIN_RES SER A  16
REMARK  2 active torsions:
REMARK  status: ('A' for Active; 'I' for Inactive)
REMARK    8  A    between atoms: CA   and  CB  
REMARK    9  A    between atoms: CB   and  OG  
ROOT
ATOM     18  CA  SER A  16      -1.305  10.019  14.282  1.00  2.34     0.200 C 
ENDROOT
BRANCH  18  19
ATOM     19  CB  SER A  16      -2.242   9.935  15.479  1.00  3.12     0.199 C 
BRANCH  19  20
ATOM     20  OG  SER A  16      -3.464   9.323  15.106  1.00  1.00    -0.398 OA
ATOM     21  H04 SER A  16      -4.160   9.606  15.704  1.00  1.00     0.209 HD
ENDBRANCH  19  20
ENDBRANCH  18  19
END_RES SER A  16
BEGIN_RES LEU A  32
REMARK  2 active torsions:
REMARK  status: ('A' for Active; 'I' for Inactive)
REMARK   10  A    between atoms: CA   and  CB  
REMARK   11  A    between atoms: CB   and  CG  
ROOT
ATOM     22  CA  LEU A  32     -10.272  -4.106   1.587  1.00 16.16     0.177 C 
ENDROOT
BRANCH  22  23
ATOM     23  CB  LEU A  32     -11.613  -3.858   0.880  1.00 12.35     0.038 C 
BRANCH  23  24
ATOM     24  CG  LEU A  32     -12.609  -5.011   1.118  1.00  9.77    -0.020 C 
ATOM     25  CD1 LEU A  32     -13.048  -5.037   2.563  1.00  4.35     0.009 C 
ATOM     26  CD2 LEU A  32     -13.814  -4.873   0.224  1.00 10.60     0.009 C 
ENDBRANCH  23  24
ENDBRANCH  22  23
END_RES LEU A  32
BEGIN_RES HIS A  38
REMARK  2 active torsions:
REMARK  status: ('A' for Active; 'I' for Inactive)
REMARK   12  A    between atoms: CA   and  CB  
REMARK   13  A    between atoms: CB   and  CG  
ROOT
ATOM     27  CA  HIS A  38     -10.959   4.941   1.621  1.00 16.94     0.182 C 
ENDROOT
BRANCH  27  28
ATOM     28  CB  HIS A  38     -11.810   4.840   2.881  1.00 15.47     0.095 C 
BRANCH  28  29
ATOM     29  CG  HIS A  38     -12.998   3.945   2.737  1.00 18.62     0.053 A 
ATOM     30  CD2 HIS A  38     -14.160   4.113   2.061  1.00 15.06     0.116 A 
ATOM     31  NE2 HIS A  38     -14.896   2.968   2.236  1.00 18.12    -0.359 N 
ATOM     32  CE1 HIS A  38     -14.213   2.129   2.991  1.00 14.78     0.207 A 
ATOM     33  H06 HIS A  38     -15.813   2.796   1.849  1.00 18.12     0.166 HD
ATOM     34  ND1 HIS A  38     -13.065   2.693   3.308  1.00 16.58    -0.247 NA
ENDBRANCH  28  29
ENDBRANCH  27  28
END_RES HIS A  38
BEGIN_RES TRP A  63
REMARK  2 active torsions:
REMARK  status: ('A' for Active; 'I' for Inactive)
REMARK   14  A    between atoms: CA   and  CB  
REMARK   15  A    between atoms: CB   and  CG  
ROOT
ATOM     35  CA  TRP A  63     -22.437   6.257   6.543  1.00 27.04     0.181 C 
ENDROOT
BRANCH  35  36
ATOM     36  CB  TRP A  63     -22.360   6.642   5.068  1.00 31.37     0.075 C 
BRANCH  36  37
ATOM     37  CG  TRP A  63     -20.953   6.789   4.529  1.00 34.37    -0.028 A 
ATOM     38  CD2 TRP A  63     -19.887   5.833   4.612  1.00 33.79    -0.002 A 
ATOM     39  CE3 TRP A  63     -19.753   4.576   5.206  1.00 32.99     0.014 A 
ATOM     40  CE2 TRP A  63     -18.787   6.373   3.911  1.00 35.84     0.042 A 
ATOM     41  CZ3 TRP A  63     -18.543   3.907   5.086  1.00 32.93     0.001 A 
ATOM     42  CH2 TRP A  63     -17.467   4.471   4.383  1.00 39.24     0.002 A 
ATOM     43  CZ2 TRP A  63     -17.570   5.700   3.788  1.00 37.99     0.030 A 
ATOM     44  NE1 TRP A  63     -19.169   7.595   3.430  1.00 37.98    -0.365 N 
ATOM     45  H06 TRP A  63     -18.591   8.219   2.886  1.00 37.98     0.165 HD
ATOM     46  CD1 TRP A  63     -20.468   7.835   3.808  1.00 38.16     0.096 A 
ENDBRANCH  36  37
ENDBRANCH  35  36
END_RES TRP A  63
BEGIN_RES LEU A  66
REMARK  2 active torsions:
REMARK  status: ('A' for Active; 'I' for Inactive)
REMARK   16  A    between atoms: CA   and  CB  
REMARK   17  A    between atoms: CB   and  CG  
ROOT
ATOM     47  CA  LEU A  66     -20.004   6.489  11.120  1.00 10.90     0.177 C 
ENDROOT
BRANCH  47  48
ATOM     48  CB  LEU A  66     -19.626   5.453  10.069  1.00 13.57     0.038 C 
BRANCH  48  49
ATOM     49  CG  LEU A  66     -19.398   4.020  10.549  1.00  8.73    -0.020 C 
ATOM     50  CD1 LEU A  66     -19.292   3.974  12.051  1.00 14.23     0.009 C 
ATOM     51  CD2 LEU A  66     -20.555   3.172  10.087  1.00  1.92     0.009 C 
ENDBRANCH  48  49
ENDBRANCH  47  48
END_RES LEU A  66
BEGIN_RES PHE A  70
REMARK  2 active torsions:
REMARK  status: ('A' for Active; 'I' for Inactive)
REMARK   18  A    between atoms: CA   and  CB  
REMARK   19  A    between atoms: CB   and  CG  
ROOT
ATOM     52  CA  PHE A  70     -14.974   9.434  13.165  1.00  8.78     0.180 C 
ENDROOT
BRANCH  52  53
ATOM     53  CB  PHE A  70     -14.707   9.132  11.681  1.00  6.33     0.073 C 
BRANCH  53  54
ATOM     54  CG  PHE A  70     -13.983   7.832  11.456  1.00  3.42    -0.056 A 
ATOM     55  CD1 PHE A  70     -13.511   7.082  12.522  1.00 13.88     0.007 A 
ATOM     56  CE1 PHE A  70     -12.795   5.892  12.303  1.00 12.71     0.001 A 
ATOM     57  CZ  PHE A  70     -12.550   5.450  11.003  1.00  4.21     0.000 A 
ATOM     58  CE2 PHE A  70     -13.018   6.188   9.931  1.00  2.83     0.001 A 
ATOM     59  CD2 PHE A  70     -13.733   7.376  10.161  1.00  1.00     0.007 A 
ENDBRANCH  53  54
ENDBRANCH  52  53
END_RES PHE A  70
BEGIN_RES TYR A  73
REMARK  3 active torsions:
REMARK  status: ('A' for Active; 'I' for Inactive)
REMARK   20  A    between atoms: CA   and  CB  
REMARK   21  A    between atoms: CB   and  CG  
REMARK   22  A    between atoms: CZ   and  OH  
ROOT
ATOM     60  CA  TYR A  73     -13.212  10.166  17.260  1.00 12.17     0.180 C 
ENDROOT
BRANCH  60  61
ATOM     61  CB  TYR A  73     -13.301   8.846  16.517  1.00 12.84     0.073 C 
BRANCH  61  62
ATOM     62  CG  TYR A  73     -13.694   7.709  17.393  1.00 15.89    -0.056 A 
ATOM     63  CD1 TYR A  73     -13.753   7.853  18.762  1.00 16.00     0.010 A 
ATOM     64  CE1 TYR A  73     -14.091   6.780  19.587  1.00 13.55     0.037 A 
ATOM     65  CZ  TYR A  73     -14.371   5.552  19.020  1.00 18.13     0.065 A 
ATOM     66  CE2 TYR A  73     -14.320   5.382  17.656  1.00 15.89     0.037 A 
ATOM     67  CD2 TYR A  73     -13.982   6.462  16.850  1.00 21.86     0.010 A 
BRANCH  65  68
ATOM     68  OH  TYR A  73     -14.711   4.484  19.813  1.00 12.12    -0.361 OA
ATOM     69  H08 TYR A  73     -15.199   4.796  20.579  1.00 12.12     0.217 HD
ENDBRANCH  65  68
ENDBRANCH  61  62
ENDBRANCH  60  61
END_RES TYR A  73
BEGIN_RES PHE A  77
REMARK  2 active torsions:
REMARK  status: ('A' for Active; 'I' for Inactive)
REMARK   23  A    between atoms: CA   and  CB  
REMARK   24  A    between atoms: CB   and  CG  
ROOT
ATOM     70  CA  PHE A  77      -8.400  10.581  20.110  1.00 17.17     0.180 C 
ENDROOT
BRANCH  70  71
ATOM     71  CB  PHE A  77      -8.228   9.750  18.851  1.00 10.44     0.073 C 
BRANCH  71  72
ATOM     72  CG  PHE A  77      -7.045   8.835  18.890  1.00  6.07    -0.056 A 
ATOM     73  CD2 PHE A  77      -6.782   8.077  20.009  1.00  9.61     0.007 A 
ATOM     74  CE2 PHE A  77      -5.687   7.223  20.053  1.00  1.00     0.001 A 
ATOM     75  CZ  PHE A  77      -4.843   7.124  18.959  1.00  1.92     0.000 A 
ATOM     76  CE1 PHE A  77      -5.092   7.874  17.832  1.00  9.25     0.001 A 
ATOM     77  CD1 PHE A  77      -6.194   8.728  17.802  1.00  9.63     0.007 A 
ENDBRANCH  71  72
ENDBRANCH  70  71
END_RES PHE A  77
BEGIN_RES LEU A  96
REMARK  2 active torsions:
REMARK  status: ('A' for Active; 'I' for Inactive)
REMARK   25  A    between atoms: CA   and  CB  
REMARK   26  A    between atoms: CB   and  CG  
ROOT
ATOM     78  CA  LEU A  96       0.717   6.481  17.359  1.00 16.08     0.177 C 
ENDROOT
BRANCH  78  79
ATOM     79  CB  LEU A  96      -0.370   7.101  18.230  1.00 18.83     0.038 C 
BRANCH  79  80
ATOM     80  CG  LEU A  96      -0.122   6.984  19.734  1.00 19.03    -0.020 C 
ATOM     81  CD1 LEU A  96       0.620   8.213  20.203  1.00 28.17     0.009 C 
ATOM     82  CD2 LEU A  96      -1.434   6.902  20.479  1.00 22.01     0.009 C 
ENDBRANCH  79  80
ENDBRANCH  78  79
END_RES LEU A  96
BEGIN_RES VAL A  98
REMARK  1 active torsions:
REMARK  status: ('A' for Active; 'I' for Inactive)
REMARK   27  A    between atoms: CA   and  CB  
ROOT
ATOM     83  CA  VAL A  98      -3.928   2.082  14.897  1.00 19.83     0.180 C 
ENDROOT
BRANCH  83  84
ATOM     84  CB  VAL A  98      -5.203   2.807  15.281  1.00 17.87     0.009 C 
ATOM     85  CG2 VAL A  98      -4.893   4.232  15.659  1.00 29.90     0.012 C 
ATOM     86  CG1 VAL A  98      -5.873   2.080  16.428  1.00 14.79     0.012 C 
ENDBRANCH  83  84
END_RES VAL A  98
BEGIN_RES ASN A 112
REMARK  2 active torsions:
REMARK  status: ('A' for Active; 'I' for Inactive)
REMARK   28  A    between atoms: CA   and  CB  
REMARK   29  A    between atoms: CB   and  CG  
REMARK       I    between atoms: CG   and  ND2 
ROOT
ATOM     87  CA  ASN A 112     -11.790  -8.793  14.069  1.00 37.70     0.185 C 
ENDROOT
BRANCH  87  88
ATOM     88  CB  ASN A 112     -12.992  -7.945  14.465  1.00 26.24     0.137 C 
BRANCH  88  89
ATOM     89  CG  ASN A 112     -13.811  -8.561  15.577  1.00 21.77     0.217 C 
ATOM     90  ND2 ASN A 112     -14.957  -9.137  15.213  1.00  9.31    -0.370 N 
ATOM     91  H04 ASN A 112     -15.550  -9.565  15.910  1.00  9.31     0.159 HD
ATOM     92  H05 ASN A 112     -15.231  -9.146  14.241  1.00  9.31     0.159 HD
ATOM     93  OD1 ASN A 112     -13.426  -8.517  16.751  1.00 21.61    -0.274 OA
ENDBRANCH  88  89
ENDBRANCH  87  88
END_RES ASN A 112
BEGIN_RES PHE A 114
REMARK  2 active torsions:
REMARK  status: ('A' for Active; 'I' for Inactive)
REMARK   30  A    between atoms: CA   and  CB  
REMARK   31  A    between atoms: CB   and  CG  
ROOT
ATOM     94  CA  PHE A 114      -7.754  -3.619  17.012  1.00 26.06     0.180 C 
ENDROOT
BRANCH  94  95
ATOM     95  CB  PHE A 114      -8.890  -3.080  17.867  1.00 19.95     0.073 C 
BRANCH  95  96
ATOM     96  CG  PHE A 114      -9.254  -1.667  17.545  1.00 17.65    -0.056 A 
ATOM     97  CD1 PHE A 114      -8.272  -0.688  17.422  1.00 13.01     0.007 A 
ATOM     98  CE1 PHE A 114      -8.612   0.631  17.152  1.00  6.74     0.001 A 
ATOM     99  CZ  PHE A 114      -9.948   0.990  16.998  1.00  6.27     0.000 A 
ATOM    100  CE2 PHE A 114     -10.934   0.024  17.117  1.00 17.36     0.001 A 
ATOM    101  CD2 PHE A 114     -10.585  -1.303  17.391  1.00 18.39     0.007 A 
ENDBRANCH  95  96
ENDBRANCH  94  95
END_RES PHE A 114
BEGIN_RES VAL A 116
REMARK  1 active torsions:
REMARK  status: ('A' for Active; 'I' for Inactive)
REMARK   32  A    between atoms: CA   and  CB  
ROOT
ATOM    102  CA  VAL A 116      -2.467   0.283  18.565  1.00 13.48     0.180 C 
ENDROOT
BRANCH 102 103
ATOM    103  CB  VAL A 116      -3.101   1.238  19.599  1.00 20.86     0.009 C 
ATOM    104  CG1 VAL A 116      -3.162   2.653  19.018  1.00 25.01     0.012 C 
ATOM    105  CG2 VAL A 116      -4.468   0.749  20.017  1.00 25.34     0.012 C 
ENDBRANCH 102 103
END_RES VAL A 116
BEGIN_RES ILE A 123
REMARK  2 active torsions:
REMARK  status: ('A' for Active; 'I' for Inactive)
REMARK   33  A    between atoms: CA   and  CB  
REMARK   34  A    between atoms: CB   and  CG1 
ROOT
ATOM    106  CA  ILE A 123       1.557  -1.626  23.222  1.00 15.07     0.180 C 
ENDROOT
BRANCH 106 107
ATOM    107  CB  ILE A 123       1.697  -0.112  23.461  1.00 14.41     0.013 C 
ATOM    108  CG2 ILE A 123       3.079   0.199  24.009  1.00 18.35     0.012 C 
BRANCH 107 109
ATOM    109  CG1 ILE A 123       1.460   0.654  22.162  1.00 15.23     0.002 C 
ATOM    110  CD1 ILE A 123       0.180   1.455  22.156  1.00 14.67     0.005 C 
ENDBRANCH 107 109
ENDBRANCH 106 107
END_RES ILE A 123
BEGIN_RES LEU A 124
REMARK  2 active torsions:
REMARK  status: ('A' for Active; 'I' for Inactive)
REMARK   35  A    between atoms: CA   and  CB  
REMARK   36  A    between atoms: CB   and  CG  
ROOT
ATOM    111  CA  LEU A 124      -2.057  -2.686  23.524  1.00 11.86     0.177 C 
ENDROOT
BRANCH 111 112
ATOM    112  CB  LEU A 124      -2.698  -1.652  24.429  1.00 14.60     0.038 C 
BRANCH 112 113
ATOM    113  CG  LEU A 124      -2.650  -0.256  23.826  1.00 16.19    -0.020 C 
ATOM    114  CD1 LEU A 124      -4.087   0.205  23.514  1.00 22.07     0.009 C 
ATOM    115  CD2 LEU A 124      -1.954   0.680  24.781  1.00  9.12     0.009 C 
ENDBRANCH 112 113
ENDBRANCH 111 112
END_RES LEU A 124
BEGIN_RES PHE A 126
REMARK  2 active torsions:
REMARK  status: ('A' for Active; 'I' for Inactive)
REMARK   37  A    between atoms: CA   and  CB  
REMARK   38  A    between atoms: CB   and  CG  
ROOT
ATOM    116  CA  PHE A 126      -8.784  -4.792  22.233  1.00 23.15     0.180 C 
ENDROOT
BRANCH 116 117
ATOM    117  CB  PHE A 126      -9.823  -4.011  21.461  1.00 20.65     0.073 C 
BRANCH 117 118
ATOM    118  CG  PHE A 126     -10.962  -3.565  22.291  1.00 23.65    -0.056 A 
ATOM    119  CD2 PHE A 126     -12.210  -4.146  22.148  1.00 36.63     0.007 A 
ATOM    120  CE2 PHE A 126     -13.289  -3.724  22.937  1.00 36.27     0.001 A 
ATOM    121  CZ  PHE A 126     -13.109  -2.713  23.870  1.00 18.06     0.000 A 
ATOM    122  CE1 PHE A 126     -11.865  -2.133  24.017  1.00  5.50     0.001 A 
ATOM    123  CD1 PHE A 126     -10.797  -2.562  23.230  1.00 15.29     0.007 A 
ENDBRANCH 117 118
ENDBRANCH 116 117
END_RES PHE A 126
BEGIN_RES TRP A 131
REMARK  2 active torsions:
REMARK  status: ('A' for Active; 'I' for Inactive)
REMARK   39  A    between atoms: CA   and  CB  
REMARK   40  A    between atoms: CB   and  CG  
ROOT
ATOM    124  CA  TRP A 131      -8.096  -3.335  26.542  1.00 14.52     0.181 C 
ENDROOT
BRANCH 124 125
ATOM    125  CB  TRP A 131      -7.651  -1.877  26.607  1.00 13.06     0.075 C 
BRANCH 125 126
ATOM    126  CG  TRP A 131      -8.082  -1.043  25.421  1.00 16.97    -0.028 A 
ATOM    127  CD2 TRP A 131      -9.191  -0.141  25.372  1.00 11.34    -0.002 A 
ATOM    128  CE2 TRP A 131      -9.219   0.425  24.082  1.00  5.87     0.042 A 
ATOM    129  CE3 TRP A 131     -10.166   0.243  26.300  1.00  3.80     0.014 A 
ATOM    130  CZ2 TRP A 131     -10.183   1.358  23.696  1.00  1.35     0.030 A 
ATOM    131  NE1 TRP A 131      -8.176  -0.109  23.376  1.00 13.90    -0.365 N 
ATOM    132  CH2 TRP A 131     -11.127   1.716  24.627  1.00  1.00     0.002 A 
ATOM    133  CZ3 TRP A 131     -11.125   1.165  25.922  1.00  1.00     0.001 A 
ATOM    134  CD1 TRP A 131      -7.496  -0.989  24.186  1.00 17.22     0.096 A 
ATOM    135  H07 TRP A 131      -7.943   0.108  22.418  1.00 13.90     0.165 HD
ENDBRANCH 125 126
ENDBRANCH 124 125
END_RES TRP A 131
BEGIN_RES LEU A 148
REMARK  2 active torsions:
REMARK  status: ('A' for Active; 'I' for Inactive)
REMARK   41  A    between atoms: CA   and  CB  
REMARK   42  A    between atoms: CB   and  CG  
ROOT
ATOM    136  CA  LEU A 148      -9.018   3.259  29.295  1.00 16.99     0.177 C 
ENDROOT
BRANCH 136 137
ATOM    137  CB  LEU A 148      -8.166   2.574  28.236  1.00  6.39     0.038 C 
BRANCH 137 138
ATOM    138  CG  LEU A 148      -7.600   3.351  27.065  1.00  1.00    -0.020 C 
ATOM    139  CD2 LEU A 148      -8.704   4.022  26.302  1.00  1.00     0.009 C 
ATOM    140  CD1 LEU A 148      -6.846   2.382  26.172  1.00  2.71     0.009 C 
ENDBRANCH 137 138
ENDBRANCH 136 137
END_RES LEU A 148
BEGIN_RES THR A 154
REMARK  2 active torsions:
REMARK  status: ('A' for Active; 'I' for Inactive)
REMARK   43  A    between atoms: CA   and  CB  
REMARK   44  A    between atoms: CB   and  OG1 
ROOT
ATOM    141  CA  THR A 154     -15.990   3.959  24.426  1.00 20.45     0.205 C 
ENDROOT
BRANCH 141 142
ATOM    142  CB  THR A 154     -14.777   4.829  24.694  1.00 16.79     0.146 C 
ATOM    143  CG2 THR A 154     -13.681   4.523  23.691  1.00 20.24     0.042 C 
BRANCH 142 144
ATOM    144  OG1 THR A 154     -15.154   6.205  24.562  1.00 18.84    -0.393 OA
ATOM    145  H06 THR A 154     -15.338   6.572  25.429  1.00 18.84     0.210 HD
ENDBRANCH 142 144
ENDBRANCH 141 142
END_RES THR A 154
BEGIN_RES VAL A 158
REMARK  1 active torsions:
REMARK  status: ('A' for Active; 'I' for Inactive)
REMARK   45  A    between atoms: CA   and  CB  
ROOT
ATOM    146  CA  VAL A 158     -15.487  -0.189  19.892  1.00 15.49     0.180 C 
ENDROOT
BRANCH 146 147
ATOM    147  CB  VAL A 158     -14.291  -0.273  20.822  1.00  6.52     0.009 C 
ATOM    148  CG1 VAL A 158     -13.247  -1.218  20.274  1.00  1.00     0.012 C 
ATOM    149  CG2 VAL A 158     -13.722   1.101  20.997  1.00  5.99     0.012 C 
ENDBRANCH 146 147
END_RES VAL A 158
BEGIN_RES LEU A 161
REMARK  2 active torsions:
REMARK  status: ('A' for Active; 'I' for Inactive)
REMARK   46  A    between atoms: CA   and  CB  
REMARK   47  A    between atoms: CB   and  CG  
ROOT
ATOM    150  CA  LEU A 161     -18.031  -1.858  15.935  1.00 13.31     0.177 C 
ENDROOT
BRANCH 150 151
ATOM    151  CB  LEU A 161     -17.046  -0.706  16.001  1.00 14.13     0.038 C 
BRANCH 151 152
ATOM    152  CG  LEU A 161     -17.430   0.555  15.237  1.00 19.39    -0.020 C 
ATOM    153  CD2 LEU A 161     -18.896   0.858  15.432  1.00 27.75     0.009 C 
ATOM    154  CD1 LEU A 161     -17.136   0.346  13.775  1.00 18.59     0.009 C 
ENDBRANCH 151 152
ENDBRANCH 150 151
END_RES LEU A 161
BEGIN_RES GLN A 168
REMARK  3 active torsions:
REMARK  status: ('A' for Active; 'I' for Inactive)
REMARK   48  A    between atoms: CA   and  CB  
REMARK   49  A    between atoms: CB   and  CG  
REMARK   50  A    between atoms: CG   and  CD  
REMARK       I    between atoms: CD   and  NE2 
ROOT
ATOM    155  CA  GLN A 168     -22.035  -6.020   8.155  1.00 30.94     0.177 C 
ENDROOT
BRANCH 155 156
ATOM    156  CB  GLN A 168     -23.054  -5.218   8.946  1.00 41.76     0.044 C 
BRANCH 156 157
ATOM    157  CG  GLN A 168     -24.419  -5.847   9.023  1.00 61.20     0.105 C 
BRANCH 157 158
ATOM    158  CD  GLN A 168     -24.539  -6.796  10.199  1.00 75.49     0.215 C 
ATOM    159  NE2 GLN A 168     -23.880  -6.449  11.307  1.00 85.00    -0.370 N 
ATOM    160  H06 GLN A 168     -23.919  -7.042  12.124  1.00 85.00     0.159 HD
ATOM    161  H07 GLN A 168     -23.343  -5.594  11.328  1.00 85.00     0.159 HD
ATOM    162  OE1 GLN A 168     -25.209  -7.835  10.117  1.00 73.64    -0.274 OA
ENDBRANCH 157 158
ENDBRANCH 156 157
ENDBRANCH 155 156
END_RES GLN A 168
ENDMDL
MODEL 7
REMARK VINA RESULT:     -10.0      2.423      6.742
REMARK  Name = 9548661
REMARK  9 active torsions:
REMARK  status: ('A' for Active; 'I' for Inactive)
REMARK    1  A    between atoms: O_1  and  C_11
REMARK    2  A    between atoms: O_2  and  C_24
REMARK    3  A    between atoms: C_5  and  C_19
REMARK    4  A    between atoms: C_9  and  C_22
REMARK    5  A    between atoms: C_10  and  C_20
REMARK    6  A    between atoms: C_20  and  C_25
REMARK    7  A    between atoms: C_20  and  C_26
REMARK    8  A    between atoms: C_25  and  C_27
REMARK    9  A    between atoms: C_27  and  C_28
REMARK                            x       y       z     vdW  Elec       q    Type
REMARK                         _______ _______ _______ _____ _____    ______ ____
ROOT
ATOM      1  C   UNL     1     -12.924   1.615  15.132  0.00  0.00    +0.000 C 
ATOM      2  C   UNL     1     -13.400   0.355  14.371  0.00  0.00    +0.000 C 
ATOM      3  C   UNL     1     -14.712   0.577  13.609  0.00  0.00    +0.000 C 
ATOM      4  C   UNL     1     -14.512   1.734  12.578  0.00  0.00    +0.000 C 
ATOM      5  C   UNL     1     -15.810   1.991  11.721  0.00  0.00    +0.000 C 
ATOM      6  C   UNL     1     -11.664   1.020  15.813  0.00  0.00    +0.000 C 
ATOM      7  C   UNL     1     -12.673   2.741  14.107  0.00  0.00    +0.000 C 
ATOM      8  C   UNL     1     -13.929   3.010  13.251  0.00  0.00    +0.000 C 
ATOM      9  C   UNL     1     -16.261   0.652  11.045  0.00  0.00    +0.000 C 
ATOM     10  C   UNL     1     -13.340  -0.749  15.424  0.00  0.00    +0.000 C 
ATOM     11  C   UNL     1     -15.178  -0.712  12.918  0.00  0.00    +0.000 C 
ATOM     12  C   UNL     1     -12.131  -0.371  16.300  0.00  0.00    +0.000 C 
ATOM     13  C   UNL     1     -16.421  -0.490  12.061  0.00  0.00    +0.000 C 
ATOM     14  C   UNL     1     -15.587   3.055  10.607  0.00  0.00    +0.000 C 
ATOM     15  C   UNL     1     -15.322   0.217   9.899  0.00  0.00    +0.000 C 
ATOM     16  C   UNL     1     -14.637   2.607   9.503  0.00  0.00    +0.000 C 
ATOM     17  C   UNL     1     -15.123   1.315   8.859  0.00  0.00    +0.000 C 
ATOM     18  H   UNL     1     -12.641   0.089  13.617  0.00  0.00    +0.000 HD
ATOM     19  H   UNL     1     -15.492   0.854  14.326  0.00  0.00    +0.000 HD
ATOM     20  H   UNL     1     -13.730   1.391  11.886  0.00  0.00    +0.000 HD
ATOM     21  H   UNL     1     -10.897   0.841  15.046  0.00  0.00    +0.000 HD
ATOM     22  H   UNL     1     -12.413   3.689  14.574  0.00  0.00    +0.000 HD
ATOM     23  H   UNL     1     -13.656   3.729  12.472  0.00  0.00    +0.000 HD
ATOM     24  H   UNL     1     -14.691   3.490  13.873  0.00  0.00    +0.000 HD
ATOM     25  H   UNL     1     -17.248   0.815  10.589  0.00  0.00    +0.000 HD
ATOM     26  H   UNL     1     -13.210  -1.737  14.973  0.00  0.00    +0.000 HD
ATOM     27  H   UNL     1     -14.254  -0.779  16.028  0.00  0.00    +0.000 HD
ATOM     28  H   UNL     1     -15.408  -1.476  13.671  0.00  0.00    +0.000 HD
ATOM     29  H   UNL     1     -14.370  -1.122  12.302  0.00  0.00    +0.000 HD
ATOM     30  H   UNL     1     -12.431  -0.367  17.354  0.00  0.00    +0.000 HD
ATOM     31  H   UNL     1     -11.330  -1.110  16.188  0.00  0.00    +0.000 HD
ATOM     32  H   UNL     1     -16.671  -1.423  11.540  0.00  0.00    +0.000 HD
ATOM     33  H   UNL     1     -17.274  -0.279  12.718  0.00  0.00    +0.000 HD
ATOM     34  H   UNL     1     -15.234   4.002  11.029  0.00  0.00    +0.000 HD
ATOM     35  H   UNL     1     -16.554   3.290  10.140  0.00  0.00    +0.000 HD
ATOM     36  H   UNL     1     -14.343  -0.096  10.279  0.00  0.00    +0.000 HD
ATOM     37  H   UNL     1     -15.730  -0.672   9.402  0.00  0.00    +0.000 HD
ATOM     38  H   UNL     1     -14.565   3.391   8.739  0.00  0.00    +0.000 HD
ATOM     39  H   UNL     1     -13.619   2.484   9.887  0.00  0.00    +0.000 HD
ATOM     40  H   UNL     1     -16.068   1.491   8.329  0.00  0.00    +0.000 HD
ENDROOT
BRANCH   1  41
ATOM     41  C   UNL     1     -13.937   2.119  16.195  0.00  0.00    +0.000 C 
ATOM     42  H   UNL     1     -13.476   2.788  16.930  0.00  0.00    +0.000 HD
ATOM     43  H   UNL     1     -14.762   2.670  15.734  0.00  0.00    +0.000 HD
ATOM     44  H   UNL     1     -14.395   1.304  16.762  0.00  0.00    +0.000 HD
ENDBRANCH   1  41
BRANCH   5  45
ATOM     45  C   UNL     1     -16.963   2.532  12.606  0.00  0.00    +0.000 C 
ATOM     46  H   UNL     1     -17.053   2.009  13.561  0.00  0.00    +0.000 HD
ATOM     47  H   UNL     1     -16.836   3.597  12.825  0.00  0.00    +0.000 HD
ATOM     48  H   UNL     1     -17.928   2.428  12.094  0.00  0.00    +0.000 HD
ENDBRANCH   5  45
BRANCH   7  49
ATOM     49  O   UNL     1     -11.596   2.393  13.236  0.00  0.00    +0.000 OA
ATOM     50  H   UNL     1     -10.782   2.367  13.767  0.00  0.00    +0.000 HD
ENDBRANCH   7  49
BRANCH  17  51
ATOM     51  O   UNL     1     -14.168   0.868   7.904  0.00  0.00    +0.000 OA
ATOM     52  H   UNL     1     -13.288   0.947   8.309  0.00  0.00    +0.000 HD
ENDBRANCH  17  51
BRANCH   6  53
ATOM     53  C   UNL     1     -11.034   1.854  16.920  0.00  0.00    +0.000 C 
ATOM     54  H   UNL     1     -10.089   1.400  17.239  0.00  0.00    +0.000 HD
BRANCH  53  55
ATOM     55  C   UNL     1     -11.963   1.896  18.139  0.00  0.00    +0.000 C 
ATOM     56  H   UNL     1     -11.700   1.140  18.882  0.00  0.00    +0.000 HD
ATOM     57  H   UNL     1     -12.987   1.638  17.869  0.00  0.00    +0.000 HD
ATOM     58  H   UNL     1     -11.935   2.864  18.648  0.00  0.00    +0.000 HD
ENDBRANCH  53  55
BRANCH  53  59
ATOM     59  C   UNL     1     -10.703   3.268  16.394  0.00  0.00    +0.000 C 
ATOM     60  H   UNL     1     -11.294   3.483  15.497  0.00  0.00    +0.000 HD
ATOM     61  H   UNL     1     -11.005   4.010  17.145  0.00  0.00    +0.000 HD
BRANCH  59  62
ATOM     62  C   UNL     1      -9.230   3.508  16.066  0.00  0.00    +0.000 C 
ATOM     63  H   UNL     1      -8.725   3.821  16.991  0.00  0.00    +0.000 HD
ATOM     64  H   UNL     1      -8.729   2.582  15.767  0.00  0.00    +0.000 HD
BRANCH  62  67
ATOM     65  O   UNL     1      -8.020   5.415  15.333  0.00  0.00    +0.000 OA
ATOM     66  O   UNL     1      -9.711   4.596  14.033  0.00  0.00    +0.000 OA
ATOM     67  C   UNL     1      -8.951   4.614  15.045  0.00  0.00    +0.000 C 
ENDBRANCH  62  67
ENDBRANCH  59  62
ENDBRANCH  53  59
ENDBRANCH   6  53
TORSDOF 9
BEGIN_RES LEU A  10
REMARK  2 active torsions:
REMARK  status: ('A' for Active; 'I' for Inactive)
REMARK    1  A    between atoms: CA   and  CB  
REMARK    2  A    between atoms: CB   and  CG  
ROOT
ATOM      1  CA  LEU A  10     -10.775  -4.871   5.898  1.00 25.14     0.177 C 
ENDROOT
BRANCH   1   2
ATOM      2  CB  LEU A  10     -12.191  -4.387   6.226  1.00 17.87     0.038 C 
BRANCH   2   3
ATOM      3  CG  LEU A  10     -12.408  -2.885   6.030  1.00 24.95    -0.020 C 
ATOM      4  CD2 LEU A  10     -13.669  -2.482   6.716  1.00 26.38     0.009 C 
ATOM      5  CD1 LEU A  10     -12.465  -2.533   4.554  1.00 28.12     0.009 C 
ENDBRANCH   2   3
ENDBRANCH   1   2
END_RES LEU A  10
BEGIN_RES CYS A  12
REMARK  2 active torsions:
REMARK  status: ('A' for Active; 'I' for Inactive)
REMARK    3  A    between atoms: CA   and  CB  
REMARK    4  A    between atoms: CB   and  SG  
ROOT
ATOM      6  CA  CYS A  12      -8.555   0.470   8.750  1.00 23.16     0.185 C 
ENDROOT
BRANCH   6   7
ATOM      7  CB  CYS A  12      -9.828   0.763   9.555  1.00 20.43     0.105 C 
BRANCH   7   8
ATOM      8  SG  CYS A  12     -10.869   2.122   8.939  1.00 24.64    -0.180 SA
ATOM      9  H04 CYS A  12     -10.366   3.293   9.351  1.00 24.64     0.101 HD
ENDBRANCH   7   8
ENDBRANCH   6   7
END_RES CYS A  12
BEGIN_RES GLN A  14
REMARK  3 active torsions:
REMARK  status: ('A' for Active; 'I' for Inactive)
REMARK    5  A    between atoms: CA   and  CB  
REMARK    6  A    between atoms: CB   and  CG  
REMARK    7  A    between atoms: CG   and  CD  
REMARK       I    between atoms: CD   and  NE2 
ROOT
ATOM     10  CA  GLN A  14      -4.645   5.402  11.377  1.00 10.43     0.177 C 
ENDROOT
BRANCH  10  11
ATOM     11  CB  GLN A  14      -5.541   5.549  12.608  1.00 14.45     0.044 C 
BRANCH  11  12
ATOM     12  CG  GLN A  14      -6.756   6.419  12.386  1.00 13.74     0.105 C 
BRANCH  12  13
ATOM     13  CD  GLN A  14      -6.392   7.852  12.078  1.00 16.29     0.215 C 
ATOM     14  NE2 GLN A  14      -5.520   8.421  12.882  1.00  8.57    -0.370 N 
ATOM     15  H06 GLN A  14      -5.237   9.378  12.724  1.00  8.57     0.159 HD
ATOM     16  H07 GLN A  14      -5.134   7.902  13.657  1.00  8.57     0.159 HD
ATOM     17  OE1 GLN A  14      -6.886   8.437  11.127  1.00 23.55    -0.274 OA
ENDBRANCH  12  13
ENDBRANCH  11  12
ENDBRANCH  10  11
END_RES GLN A  14
BEGIN_RES SER A  16
REMARK  2 active torsions:
REMARK  status: ('A' for Active; 'I' for Inactive)
REMARK    8  A    between atoms: CA   and  CB  
REMARK    9  A    between atoms: CB   and  OG  
ROOT
ATOM     18  CA  SER A  16      -1.305  10.019  14.282  1.00  2.34     0.200 C 
ENDROOT
BRANCH  18  19
ATOM     19  CB  SER A  16      -2.242   9.935  15.479  1.00  3.12     0.199 C 
BRANCH  19  20
ATOM     20  OG  SER A  16      -3.468   9.331  15.104  1.00  1.00    -0.398 OA
ATOM     21  H04 SER A  16      -3.493   8.429  15.429  1.00  1.00     0.209 HD
ENDBRANCH  19  20
ENDBRANCH  18  19
END_RES SER A  16
BEGIN_RES LEU A  32
REMARK  2 active torsions:
REMARK  status: ('A' for Active; 'I' for Inactive)
REMARK   10  A    between atoms: CA   and  CB  
REMARK   11  A    between atoms: CB   and  CG  
ROOT
ATOM     22  CA  LEU A  32     -10.272  -4.106   1.587  1.00 16.16     0.177 C 
ENDROOT
BRANCH  22  23
ATOM     23  CB  LEU A  32     -11.613  -3.858   0.880  1.00 12.35     0.038 C 
BRANCH  23  24
ATOM     24  CG  LEU A  32     -12.546  -5.083   0.972  1.00  9.77    -0.020 C 
ATOM     25  CD1 LEU A  32     -13.012  -5.282   2.395  1.00  4.35     0.009 C 
ATOM     26  CD2 LEU A  32     -13.737  -4.920   0.065  1.00 10.60     0.009 C 
ENDBRANCH  23  24
ENDBRANCH  22  23
END_RES LEU A  32
BEGIN_RES HIS A  38
REMARK  2 active torsions:
REMARK  status: ('A' for Active; 'I' for Inactive)
REMARK   12  A    between atoms: CA   and  CB  
REMARK   13  A    between atoms: CB   and  CG  
ROOT
ATOM     27  CA  HIS A  38     -10.959   4.941   1.621  1.00 16.94     0.182 C 
ENDROOT
BRANCH  27  28
ATOM     28  CB  HIS A  38     -11.810   4.840   2.881  1.00 15.47     0.095 C 
BRANCH  28  29
ATOM     29  CG  HIS A  38     -13.000   3.948   2.736  1.00 18.62     0.053 A 
ATOM     30  CD2 HIS A  38     -14.163   4.121   2.063  1.00 15.06     0.116 A 
ATOM     31  NE2 HIS A  38     -14.901   2.978   2.235  1.00 18.12    -0.359 N 
ATOM     32  CE1 HIS A  38     -14.219   2.134   2.985  1.00 14.78     0.207 A 
ATOM     33  H06 HIS A  38     -15.819   2.809   1.849  1.00 18.12     0.166 HD
ATOM     34  ND1 HIS A  38     -13.069   2.694   3.302  1.00 16.58    -0.247 NA
ENDBRANCH  28  29
ENDBRANCH  27  28
END_RES HIS A  38
BEGIN_RES TRP A  63
REMARK  2 active torsions:
REMARK  status: ('A' for Active; 'I' for Inactive)
REMARK   14  A    between atoms: CA   and  CB  
REMARK   15  A    between atoms: CB   and  CG  
ROOT
ATOM     35  CA  TRP A  63     -22.437   6.257   6.543  1.00 27.04     0.181 C 
ENDROOT
BRANCH  35  36
ATOM     36  CB  TRP A  63     -22.360   6.642   5.068  1.00 31.37     0.075 C 
BRANCH  36  37
ATOM     37  CG  TRP A  63     -20.953   6.762   4.522  1.00 34.37    -0.028 A 
ATOM     38  CD2 TRP A  63     -19.893   5.802   4.635  1.00 33.79    -0.002 A 
ATOM     39  CE3 TRP A  63     -19.766   4.565   5.269  1.00 32.99     0.014 A 
ATOM     40  CE2 TRP A  63     -18.791   6.312   3.914  1.00 35.84     0.042 A 
ATOM     41  CZ3 TRP A  63     -18.561   3.884   5.169  1.00 32.93     0.001 A 
ATOM     42  CH2 TRP A  63     -17.482   4.418   4.446  1.00 39.24     0.002 A 
ATOM     43  CZ2 TRP A  63     -17.579   5.627   3.812  1.00 37.99     0.030 A 
ATOM     44  NE1 TRP A  63     -19.166   7.520   3.394  1.00 37.98    -0.365 N 
ATOM     45  H06 TRP A  63     -18.585   8.122   2.829  1.00 37.98     0.165 HD
ATOM     46  CD1 TRP A  63     -20.463   7.781   3.766  1.00 38.16     0.096 A 
ENDBRANCH  36  37
ENDBRANCH  35  36
END_RES TRP A  63
BEGIN_RES LEU A  66
REMARK  2 active torsions:
REMARK  status: ('A' for Active; 'I' for Inactive)
REMARK   16  A    between atoms: CA   and  CB  
REMARK   17  A    between atoms: CB   and  CG  
ROOT
ATOM     47  CA  LEU A  66     -20.004   6.489  11.120  1.00 10.90     0.177 C 
ENDROOT
BRANCH  47  48
ATOM     48  CB  LEU A  66     -19.626   5.453  10.069  1.00 13.57     0.038 C 
BRANCH  48  49
ATOM     49  CG  LEU A  66     -19.314   4.040  10.560  1.00  8.73    -0.020 C 
ATOM     50  CD1 LEU A  66     -20.434   3.517  11.421  1.00 14.23     0.009 C 
ATOM     51  CD2 LEU A  66     -19.124   3.148   9.360  1.00  1.92     0.009 C 
ENDBRANCH  48  49
ENDBRANCH  47  48
END_RES LEU A  66
BEGIN_RES PHE A  70
REMARK  2 active torsions:
REMARK  status: ('A' for Active; 'I' for Inactive)
REMARK   18  A    between atoms: CA   and  CB  
REMARK   19  A    between atoms: CB   and  CG  
ROOT
ATOM     52  CA  PHE A  70     -14.974   9.434  13.165  1.00  8.78     0.180 C 
ENDROOT
BRANCH  52  53
ATOM     53  CB  PHE A  70     -14.707   9.132  11.681  1.00  6.33     0.073 C 
BRANCH  53  54
ATOM     54  CG  PHE A  70     -13.902   7.880  11.461  1.00  3.42    -0.056 A 
ATOM     55  CD1 PHE A  70     -13.715   7.365  10.187  1.00 13.88     0.007 A 
ATOM     56  CE1 PHE A  70     -13.001   6.169   9.993  1.00 12.71     0.001 A 
ATOM     57  CZ  PHE A  70     -12.470   5.483  11.085  1.00  4.21     0.000 A 
ATOM     58  CE2 PHE A  70     -12.648   5.988  12.360  1.00  2.83     0.001 A 
ATOM     59  CD2 PHE A  70     -13.363   7.184  12.543  1.00  1.00     0.007 A 
ENDBRANCH  53  54
ENDBRANCH  52  53
END_RES PHE A  70
BEGIN_RES TYR A  73
REMARK  3 active torsions:
REMARK  status: ('A' for Active; 'I' for Inactive)
REMARK   20  A    between atoms: CA   and  CB  
REMARK   21  A    between atoms: CB   and  CG  
REMARK   22  A    between atoms: CZ   and  OH  
ROOT
ATOM     60  CA  TYR A  73     -13.212  10.166  17.260  1.00 12.17     0.180 C 
ENDROOT
BRANCH  60  61
ATOM     61  CB  TYR A  73     -13.301   8.846  16.517  1.00 12.84     0.073 C 
BRANCH  61  62
ATOM     62  CG  TYR A  73     -13.358   7.668  17.425  1.00 15.89    -0.056 A 
ATOM     63  CD1 TYR A  73     -13.502   6.392  16.927  1.00 16.00     0.010 A 
ATOM     64  CE1 TYR A  73     -13.586   5.290  17.777  1.00 13.55     0.037 A 
ATOM     65  CZ  TYR A  73     -13.525   5.483  19.143  1.00 18.13     0.065 A 
ATOM     66  CE2 TYR A  73     -13.380   6.746  19.666  1.00 15.89     0.037 A 
ATOM     67  CD2 TYR A  73     -13.297   7.833  18.804  1.00 21.86     0.010 A 
BRANCH  65  68
ATOM     68  OH  TYR A  73     -13.600   4.411  19.999  1.00 12.12    -0.361 OA
ATOM     69  H08 TYR A  73     -13.546   3.595  19.496  1.00 12.12     0.217 HD
ENDBRANCH  65  68
ENDBRANCH  61  62
ENDBRANCH  60  61
END_RES TYR A  73
BEGIN_RES PHE A  77
REMARK  2 active torsions:
REMARK  status: ('A' for Active; 'I' for Inactive)
REMARK   23  A    between atoms: CA   and  CB  
REMARK   24  A    between atoms: CB   and  CG  
ROOT
ATOM     70  CA  PHE A  77      -8.400  10.581  20.110  1.00 17.17     0.180 C 
ENDROOT
BRANCH  70  71
ATOM     71  CB  PHE A  77      -8.228   9.750  18.851  1.00 10.44     0.073 C 
BRANCH  71  72
ATOM     72  CG  PHE A  77      -8.778   8.363  18.965  1.00  6.07    -0.056 A 
ATOM     73  CD2 PHE A  77      -8.626   7.644  20.128  1.00  9.61     0.007 A 
ATOM     74  CE2 PHE A  77      -9.135   6.355  20.243  1.00  1.00     0.001 A 
ATOM     75  CZ  PHE A  77      -9.807   5.780  19.178  1.00  1.92     0.000 A 
ATOM     76  CE1 PHE A  77      -9.969   6.486  18.008  1.00  9.25     0.001 A 
ATOM     77  CD1 PHE A  77      -9.452   7.778  17.905  1.00  9.63     0.007 A 
ENDBRANCH  71  72
ENDBRANCH  70  71
END_RES PHE A  77
BEGIN_RES LEU A  96
REMARK  2 active torsions:
REMARK  status: ('A' for Active; 'I' for Inactive)
REMARK   25  A    between atoms: CA   and  CB  
REMARK   26  A    between atoms: CB   and  CG  
ROOT
ATOM     78  CA  LEU A  96       0.717   6.481  17.359  1.00 16.08     0.177 C 
ENDROOT
BRANCH  78  79
ATOM     79  CB  LEU A  96      -0.370   7.101  18.230  1.00 18.83     0.038 C 
BRANCH  79  80
ATOM     80  CG  LEU A  96      -0.150   6.936  19.734  1.00 19.03    -0.020 C 
ATOM     81  CD1 LEU A  96       0.569   8.158  20.258  1.00 28.17     0.009 C 
ATOM     82  CD2 LEU A  96      -1.474   6.815  20.450  1.00 22.01     0.009 C 
ENDBRANCH  79  80
ENDBRANCH  78  79
END_RES LEU A  96
BEGIN_RES VAL A  98
REMARK  1 active torsions:
REMARK  status: ('A' for Active; 'I' for Inactive)
REMARK   27  A    between atoms: CA   and  CB  
ROOT
ATOM     83  CA  VAL A  98      -3.928   2.082  14.897  1.00 19.83     0.180 C 
ENDROOT
BRANCH  83  84
ATOM     84  CB  VAL A  98      -5.203   2.807  15.281  1.00 17.87     0.009 C 
ATOM     85  CG2 VAL A  98      -5.144   3.226  16.727  1.00 29.90     0.012 C 
ATOM     86  CG1 VAL A  98      -6.393   1.905  15.031  1.00 14.79     0.012 C 
ENDBRANCH  83  84
END_RES VAL A  98
BEGIN_RES ASN A 112
REMARK  2 active torsions:
REMARK  status: ('A' for Active; 'I' for Inactive)
REMARK   28  A    between atoms: CA   and  CB  
REMARK   29  A    between atoms: CB   and  CG  
REMARK       I    between atoms: CG   and  ND2 
ROOT
ATOM     87  CA  ASN A 112     -11.790  -8.793  14.069  1.00 37.70     0.185 C 
ENDROOT
BRANCH  87  88
ATOM     88  CB  ASN A 112     -12.992  -7.945  14.465  1.00 26.24     0.137 C 
BRANCH  88  89
ATOM     89  CG  ASN A 112     -13.816  -8.565  15.571  1.00 21.77     0.217 C 
ATOM     90  ND2 ASN A 112     -14.964  -9.132  15.203  1.00  9.31    -0.370 N 
ATOM     91  H04 ASN A 112     -15.561  -9.561  15.896  1.00  9.31     0.159 HD
ATOM     92  H05 ASN A 112     -15.238  -9.132  14.230  1.00  9.31     0.159 HD
ATOM     93  OD1 ASN A 112     -13.430  -8.532  16.746  1.00 21.61    -0.274 OA
ENDBRANCH  88  89
ENDBRANCH  87  88
END_RES ASN A 112
BEGIN_RES PHE A 114
REMARK  2 active torsions:
REMARK  status: ('A' for Active; 'I' for Inactive)
REMARK   30  A    between atoms: CA   and  CB  
REMARK   31  A    between atoms: CB   and  CG  
ROOT
ATOM     94  CA  PHE A 114      -7.754  -3.619  17.012  1.00 26.06     0.180 C 
ENDROOT
BRANCH  94  95
ATOM     95  CB  PHE A 114      -8.890  -3.080  17.867  1.00 19.95     0.073 C 
BRANCH  95  96
ATOM     96  CG  PHE A 114      -8.717  -1.645  18.245  1.00 17.65    -0.056 A 
ATOM     97  CD1 PHE A 114      -8.025  -0.767  17.415  1.00 13.01     0.007 A 
ATOM     98  CE1 PHE A 114      -7.838   0.560  17.779  1.00  6.74     0.001 A 
ATOM     99  CZ  PHE A 114      -8.349   1.030  18.986  1.00  6.27     0.000 A 
ATOM    100  CE2 PHE A 114      -9.040   0.166  19.820  1.00 17.36     0.001 A 
ATOM    101  CD2 PHE A 114      -9.223  -1.170  19.447  1.00 18.39     0.007 A 
ENDBRANCH  95  96
ENDBRANCH  94  95
END_RES PHE A 114
BEGIN_RES VAL A 116
REMARK  1 active torsions:
REMARK  status: ('A' for Active; 'I' for Inactive)
REMARK   32  A    between atoms: CA   and  CB  
ROOT
ATOM    102  CA  VAL A 116      -2.467   0.283  18.565  1.00 13.48     0.180 C 
ENDROOT
BRANCH 102 103
ATOM    103  CB  VAL A 116      -3.101   1.238  19.599  1.00 20.86     0.009 C 
ATOM    104  CG1 VAL A 116      -2.685   2.678  19.288  1.00 25.01     0.012 C 
ATOM    105  CG2 VAL A 116      -4.604   1.085  19.622  1.00 25.34     0.012 C 
ENDBRANCH 102 103
END_RES VAL A 116
BEGIN_RES ILE A 123
REMARK  2 active torsions:
REMARK  status: ('A' for Active; 'I' for Inactive)
REMARK   33  A    between atoms: CA   and  CB  
REMARK   34  A    between atoms: CB   and  CG1 
ROOT
ATOM    106  CA  ILE A 123       1.557  -1.626  23.222  1.00 15.07     0.180 C 
ENDROOT
BRANCH 106 107
ATOM    107  CB  ILE A 123       1.697  -0.112  23.461  1.00 14.41     0.013 C 
ATOM    108  CG2 ILE A 123       3.089   0.203  23.980  1.00 18.35     0.012 C 
BRANCH 107 109
ATOM    109  CG1 ILE A 123       1.429   0.656  22.169  1.00 15.23     0.002 C 
ATOM    110  CD1 ILE A 123       0.177   1.498  22.213  1.00 14.67     0.005 C 
ENDBRANCH 107 109
ENDBRANCH 106 107
END_RES ILE A 123
BEGIN_RES LEU A 124
REMARK  2 active torsions:
REMARK  status: ('A' for Active; 'I' for Inactive)
REMARK   35  A    between atoms: CA   and  CB  
REMARK   36  A    between atoms: CB   and  CG  
ROOT
ATOM    111  CA  LEU A 124      -2.057  -2.686  23.524  1.00 11.86     0.177 C 
ENDROOT
BRANCH 111 112
ATOM    112  CB  LEU A 124      -2.698  -1.652  24.429  1.00 14.60     0.038 C 
BRANCH 112 113
ATOM    113  CG  LEU A 124      -2.619  -0.251  23.842  1.00 16.19    -0.020 C 
ATOM    114  CD1 LEU A 124      -4.023   0.179  23.376  1.00 22.07     0.009 C 
ATOM    115  CD2 LEU A 124      -2.054   0.695  24.873  1.00  9.12     0.009 C 
ENDBRANCH 112 113
ENDBRANCH 111 112
END_RES LEU A 124
BEGIN_RES PHE A 126
REMARK  2 active torsions:
REMARK  status: ('A' for Active; 'I' for Inactive)
REMARK   37  A    between atoms: CA   and  CB  
REMARK   38  A    between atoms: CB   and  CG  
ROOT
ATOM    116  CA  PHE A 126      -8.784  -4.792  22.233  1.00 23.15     0.180 C 
ENDROOT
BRANCH 116 117
ATOM    117  CB  PHE A 126      -9.823  -4.011  21.461  1.00 20.65     0.073 C 
BRANCH 117 118
ATOM    118  CG  PHE A 126     -10.946  -3.537  22.298  1.00 23.65    -0.056 A 
ATOM    119  CD2 PHE A 126     -12.215  -4.066  22.142  1.00 36.63     0.007 A 
ATOM    120  CE2 PHE A 126     -13.278  -3.617  22.937  1.00 36.27     0.001 A 
ATOM    121  CZ  PHE A 126     -13.062  -2.632  23.889  1.00 18.06     0.000 A 
ATOM    122  CE1 PHE A 126     -11.797  -2.103  24.049  1.00  5.50     0.001 A 
ATOM    123  CD1 PHE A 126     -10.744  -2.558  23.256  1.00 15.29     0.007 A 
ENDBRANCH 117 118
ENDBRANCH 116 117
END_RES PHE A 126
BEGIN_RES TRP A 131
REMARK  2 active torsions:
REMARK  status: ('A' for Active; 'I' for Inactive)
REMARK   39  A    between atoms: CA   and  CB  
REMARK   40  A    between atoms: CB   and  CG  
ROOT
ATOM    124  CA  TRP A 131      -8.096  -3.335  26.542  1.00 14.52     0.181 C 
ENDROOT
BRANCH 124 125
ATOM    125  CB  TRP A 131      -7.651  -1.877  26.607  1.00 13.06     0.075 C 
BRANCH 125 126
ATOM    126  CG  TRP A 131      -8.029  -1.057  25.393  1.00 16.97    -0.028 A 
ATOM    127  CD2 TRP A 131      -9.105  -0.120  25.299  1.00 11.34    -0.002 A 
ATOM    128  CE2 TRP A 131      -9.088   0.415  23.997  1.00  5.87     0.042 A 
ATOM    129  CE3 TRP A 131     -10.085   0.318  26.197  1.00  3.80     0.014 A 
ATOM    130  CZ2 TRP A 131     -10.012   1.369  23.569  1.00  1.35     0.030 A 
ATOM    131  NE1 TRP A 131      -8.050  -0.170  23.325  1.00 13.90    -0.365 N 
ATOM    132  CH2 TRP A 131     -10.962   1.782  24.470  1.00  1.00     0.002 A 
ATOM    133  CZ3 TRP A 131     -11.005   1.262  25.778  1.00  1.00     0.001 A 
ATOM    134  CD1 TRP A 131      -7.417  -1.053  24.169  1.00 17.22     0.096 A 
ATOM    135  H07 TRP A 131      -7.790   0.015  22.367  1.00 13.90     0.165 HD
ENDBRANCH 125 126
ENDBRANCH 124 125
END_RES TRP A 131
BEGIN_RES LEU A 148
REMARK  2 active torsions:
REMARK  status: ('A' for Active; 'I' for Inactive)
REMARK   41  A    between atoms: CA   and  CB  
REMARK   42  A    between atoms: CB   and  CG  
ROOT
ATOM    136  CA  LEU A 148      -9.018   3.259  29.295  1.00 16.99     0.177 C 
ENDROOT
BRANCH 136 137
ATOM    137  CB  LEU A 148      -8.166   2.574  28.236  1.00  6.39     0.038 C 
BRANCH 137 138
ATOM    138  CG  LEU A 148      -7.537   3.364  27.107  1.00  1.00    -0.020 C 
ATOM    139  CD2 LEU A 148      -8.599   4.034  26.285  1.00  1.00     0.009 C 
ATOM    140  CD1 LEU A 148      -6.725   2.408  26.252  1.00  2.71     0.009 C 
ENDBRANCH 137 138
ENDBRANCH 136 137
END_RES LEU A 148
BEGIN_RES THR A 154
REMARK  2 active torsions:
REMARK  status: ('A' for Active; 'I' for Inactive)
REMARK   43  A    between atoms: CA   and  CB  
REMARK   44  A    between atoms: CB   and  OG1 
ROOT
ATOM    141  CA  THR A 154     -15.990   3.959  24.426  1.00 20.45     0.205 C 
ENDROOT
BRANCH 141 142
ATOM    142  CB  THR A 154     -14.777   4.829  24.694  1.00 16.79     0.146 C 
ATOM    143  CG2 THR A 154     -13.665   4.491  23.720  1.00 20.24     0.042 C 
BRANCH 142 144
ATOM    144  OG1 THR A 154     -15.143   6.203  24.519  1.00 18.84    -0.393 OA
ATOM    145  H06 THR A 154     -14.756   6.730  25.221  1.00 18.84     0.210 HD
ENDBRANCH 142 144
ENDBRANCH 141 142
END_RES THR A 154
BEGIN_RES VAL A 158
REMARK  1 active torsions:
REMARK  status: ('A' for Active; 'I' for Inactive)
REMARK   45  A    between atoms: CA   and  CB  
ROOT
ATOM    146  CA  VAL A 158     -15.487  -0.189  19.892  1.00 15.49     0.180 C 
ENDROOT
BRANCH 146 147
ATOM    147  CB  VAL A 158     -14.291  -0.273  20.822  1.00  6.52     0.009 C 
ATOM    148  CG1 VAL A 158     -13.193  -1.115  20.214  1.00  1.00     0.012 C 
ATOM    149  CG2 VAL A 158     -13.801   1.114  21.100  1.00  5.99     0.012 C 
ENDBRANCH 146 147
END_RES VAL A 158
BEGIN_RES LEU A 161
REMARK  2 active torsions:
REMARK  status: ('A' for Active; 'I' for Inactive)
REMARK   46  A    between atoms: CA   and  CB  
REMARK   47  A    between atoms: CB   and  CG  
ROOT
ATOM    150  CA  LEU A 161     -18.031  -1.858  15.935  1.00 13.31     0.177 C 
ENDROOT
BRANCH 150 151
ATOM    151  CB  LEU A 161     -17.046  -0.706  16.001  1.00 14.13     0.038 C 
BRANCH 151 152
ATOM    152  CG  LEU A 161     -17.533   0.630  15.454  1.00 19.39    -0.020 C 
ATOM    153  CD2 LEU A 161     -17.144   1.750  16.389  1.00 27.75     0.009 C 
ATOM    154  CD1 LEU A 161     -19.029   0.579  15.306  1.00 18.59     0.009 C 
ENDBRANCH 151 152
ENDBRANCH 150 151
END_RES LEU A 161
BEGIN_RES GLN A 168
REMARK  3 active torsions:
REMARK  status: ('A' for Active; 'I' for Inactive)
REMARK   48  A    between atoms: CA   and  CB  
REMARK   49  A    between atoms: CB   and  CG  
REMARK   50  A    between atoms: CG   and  CD  
REMARK       I    between atoms: CD   and  NE2 
ROOT
ATOM    155  CA  GLN A 168     -22.035  -6.020   8.155  1.00 30.94     0.177 C 
ENDROOT
BRANCH 155 156
ATOM    156  CB  GLN A 168     -23.054  -5.218   8.946  1.00 41.76     0.044 C 
BRANCH 156 157
ATOM    157  CG  GLN A 168     -24.389  -5.893   9.110  1.00 61.20     0.105 C 
BRANCH 157 158
ATOM    158  CD  GLN A 168     -24.381  -6.892  10.251  1.00 75.49     0.215 C 
ATOM    159  NE2 GLN A 168     -23.924  -6.446  11.422  1.00 85.00    -0.370 N 
ATOM    160  H06 GLN A 168     -23.891  -7.064  12.220  1.00 85.00     0.159 HD
ATOM    161  H07 GLN A 168     -23.610  -5.489  11.510  1.00 85.00     0.159 HD
ATOM    162  OE1 GLN A 168     -24.775  -8.055  10.085  1.00 73.64    -0.274 OA
ENDBRANCH 157 158
ENDBRANCH 156 157
ENDBRANCH 155 156
END_RES GLN A 168
ENDMDL
MODEL 8
REMARK VINA RESULT:     -10.0      2.216      6.317
REMARK  Name = 9548661
REMARK  9 active torsions:
REMARK  status: ('A' for Active; 'I' for Inactive)
REMARK    1  A    between atoms: O_1  and  C_11
REMARK    2  A    between atoms: O_2  and  C_24
REMARK    3  A    between atoms: C_5  and  C_19
REMARK    4  A    between atoms: C_9  and  C_22
REMARK    5  A    between atoms: C_10  and  C_20
REMARK    6  A    between atoms: C_20  and  C_25
REMARK    7  A    between atoms: C_20  and  C_26
REMARK    8  A    between atoms: C_25  and  C_27
REMARK    9  A    between atoms: C_27  and  C_28
REMARK                            x       y       z     vdW  Elec       q    Type
REMARK                         _______ _______ _______ _____ _____    ______ ____
ROOT
ATOM      1  C   UNL     1     -12.222   2.186  15.221  0.00  0.00    +0.000 C 
ATOM      2  C   UNL     1     -12.487   0.667  15.093  0.00  0.00    +0.000 C 
ATOM      3  C   UNL     1     -13.657   0.341  14.157  0.00  0.00    +0.000 C 
ATOM      4  C   UNL     1     -13.347   0.913  12.737  0.00  0.00    +0.000 C 
ATOM      5  C   UNL     1     -14.490   0.576  11.704  0.00  0.00    +0.000 C 
ATOM      6  C   UNL     1     -11.067   2.140  16.256  0.00  0.00    +0.000 C 
ATOM      7  C   UNL     1     -11.862   2.740  13.827  0.00  0.00    +0.000 C 
ATOM      8  C   UNL     1     -12.964   2.420  12.795  0.00  0.00    +0.000 C 
ATOM      9  C   UNL     1     -14.739  -0.970  11.690  0.00  0.00    +0.000 C 
ATOM     10  C   UNL     1     -12.547   0.186  16.541  0.00  0.00    +0.000 C 
ATOM     11  C   UNL     1     -13.922  -1.170  14.105  0.00  0.00    +0.000 C 
ATOM     12  C   UNL     1     -11.532   1.078  17.278  0.00  0.00    +0.000 C 
ATOM     13  C   UNL     1     -15.008  -1.530  13.096  0.00  0.00    +0.000 C 
ATOM     14  C   UNL     1     -14.139   1.031  10.257  0.00  0.00    +0.000 C 
ATOM     15  C   UNL     1     -13.593  -1.753  11.015  0.00  0.00    +0.000 C 
ATOM     16  C   UNL     1     -12.988   0.258   9.626  0.00  0.00    +0.000 C 
ATOM     17  C   UNL     1     -13.280  -1.237   9.614  0.00  0.00    +0.000 C 
ATOM     18  H   UNL     1     -11.594   0.188  14.656  0.00  0.00    +0.000 HD
ATOM     19  H   UNL     1     -14.563   0.810  14.553  0.00  0.00    +0.000 HD
ATOM     20  H   UNL     1     -12.440   0.398  12.394  0.00  0.00    +0.000 HD
ATOM     21  H   UNL     1     -10.170   1.733  15.768  0.00  0.00    +0.000 HD
ATOM     22  H   UNL     1     -11.742   3.822  13.818  0.00  0.00    +0.000 HD
ATOM     23  H   UNL     1     -12.601   2.732  11.809  0.00  0.00    +0.000 HD
ATOM     24  H   UNL     1     -13.848   3.026  13.014  0.00  0.00    +0.000 HD
ATOM     25  H   UNL     1     -15.641  -1.165  11.090  0.00  0.00    +0.000 HD
ATOM     26  H   UNL     1     -12.284  -0.873  16.630  0.00  0.00    +0.000 HD
ATOM     27  H   UNL     1     -13.548   0.315  16.966  0.00  0.00    +0.000 HD
ATOM     28  H   UNL     1     -14.234  -1.529  15.094  0.00  0.00    +0.000 HD
ATOM     29  H   UNL     1     -12.997  -1.706  13.863  0.00  0.00    +0.000 HD
ATOM     30  H   UNL     1     -12.009   1.525  18.157  0.00  0.00    +0.000 HD
ATOM     31  H   UNL     1     -10.682   0.482  17.632  0.00  0.00    +0.000 HD
ATOM     32  H   UNL     1     -15.110  -2.623  13.050  0.00  0.00    +0.000 HD
ATOM     33  H   UNL     1     -15.973  -1.157  13.461  0.00  0.00    +0.000 HD
ATOM     34  H   UNL     1     -13.919   2.104  10.223  0.00  0.00    +0.000 HD
ATOM     35  H   UNL     1     -15.022   0.897   9.617  0.00  0.00    +0.000 HD
ATOM     36  H   UNL     1     -12.678  -1.726  11.618  0.00  0.00    +0.000 HD
ATOM     37  H   UNL     1     -13.857  -2.816  10.950  0.00  0.00    +0.000 HD
ATOM     38  H   UNL     1     -12.829   0.607   8.598  0.00  0.00    +0.000 HD
ATOM     39  H   UNL     1     -12.046   0.460  10.148  0.00  0.00    +0.000 HD
ATOM     40  H   UNL     1     -14.127  -1.449   8.949  0.00  0.00    +0.000 HD
ENDROOT
BRANCH   1  41
ATOM     41  C   UNL     1     -13.431   2.982  15.782  0.00  0.00    +0.000 C 
ATOM     42  H   UNL     1     -14.278   2.336  16.034  0.00  0.00    +0.000 HD
ATOM     43  H   UNL     1     -13.164   3.529  16.692  0.00  0.00    +0.000 HD
ATOM     44  H   UNL     1     -13.808   3.729  15.078  0.00  0.00    +0.000 HD
ENDBRANCH   1  41
BRANCH   5  45
ATOM     45  C   UNL     1     -15.808   1.305  12.075  0.00  0.00    +0.000 C 
ATOM     46  H   UNL     1     -16.623   1.098  11.376  0.00  0.00    +0.000 HD
ATOM     47  H   UNL     1     -16.154   1.026  13.075  0.00  0.00    +0.000 HD
ATOM     48  H   UNL     1     -15.663   2.392  12.082  0.00  0.00    +0.000 HD
ENDBRANCH   5  45
BRANCH   7  49
ATOM     49  O   UNL     1     -10.632   2.178  13.367  0.00  0.00    +0.000 OA
ATOM     50  H   UNL     1     -10.847   1.400  12.826  0.00  0.00    +0.000 HD
ENDBRANCH   7  49
BRANCH  17  51
ATOM     51  O   UNL     1     -12.149  -1.941   9.112  0.00  0.00    +0.000 OA
ATOM     52  H   UNL     1     -12.361  -2.889   9.134  0.00  0.00    +0.000 HD
ENDBRANCH  17  51
BRANCH   6  53
ATOM     53  C   UNL     1     -10.688   3.463  16.907  0.00  0.00    +0.000 C 
ATOM     54  H   UNL     1     -11.310   4.270  16.504  0.00  0.00    +0.000 HD
BRANCH  53  55
ATOM     55  C   UNL     1      -9.227   3.803  16.592  0.00  0.00    +0.000 C 
ATOM     56  H   UNL     1      -9.107   4.208  15.585  0.00  0.00    +0.000 HD
ATOM     57  H   UNL     1      -8.603   2.909  16.580  0.00  0.00    +0.000 HD
ATOM     58  H   UNL     1      -8.816   4.545  17.284  0.00  0.00    +0.000 HD
ENDBRANCH  53  55
BRANCH  53  59
ATOM     59  C   UNL     1     -10.955   3.401  18.427  0.00  0.00    +0.000 C 
ATOM     60  H   UNL     1     -12.007   3.629  18.633  0.00  0.00    +0.000 HD
ATOM     61  H   UNL     1     -10.791   2.373  18.778  0.00  0.00    +0.000 HD
BRANCH  59  62
ATOM     62  C   UNL     1     -10.087   4.328  19.276  0.00  0.00    +0.000 C 
ATOM     63  H   UNL     1      -9.046   4.213  18.945  0.00  0.00    +0.000 HD
ATOM     64  H   UNL     1     -10.330   5.381  19.095  0.00  0.00    +0.000 HD
BRANCH  62  67
ATOM     65  O   UNL     1     -11.192   4.145  21.370  0.00  0.00    +0.000 OA
ATOM     66  O   UNL     1      -8.946   3.741  21.251  0.00  0.00    +0.000 OA
ATOM     67  C   UNL     1     -10.082   4.038  20.779  0.00  0.00    +0.000 C 
ENDBRANCH  62  67
ENDBRANCH  59  62
ENDBRANCH  53  59
ENDBRANCH   6  53
TORSDOF 9
BEGIN_RES LEU A  10
REMARK  2 active torsions:
REMARK  status: ('A' for Active; 'I' for Inactive)
REMARK    1  A    between atoms: CA   and  CB  
REMARK    2  A    between atoms: CB   and  CG  
ROOT
ATOM      1  CA  LEU A  10     -10.775  -4.871   5.898  1.00 25.14     0.177 C 
ENDROOT
BRANCH   1   2
ATOM      2  CB  LEU A  10     -12.191  -4.387   6.226  1.00 17.87     0.038 C 
BRANCH   2   3
ATOM      3  CG  LEU A  10     -12.472  -2.937   5.827  1.00 24.95    -0.020 C 
ATOM      4  CD2 LEU A  10     -13.855  -2.575   6.252  1.00 26.38     0.009 C 
ATOM      5  CD1 LEU A  10     -12.305  -2.743   4.330  1.00 28.12     0.009 C 
ENDBRANCH   2   3
ENDBRANCH   1   2
END_RES LEU A  10
BEGIN_RES CYS A  12
REMARK  2 active torsions:
REMARK  status: ('A' for Active; 'I' for Inactive)
REMARK    3  A    between atoms: CA   and  CB  
REMARK    4  A    between atoms: CB   and  SG  
ROOT
ATOM      6  CA  CYS A  12      -8.555   0.470   8.750  1.00 23.16     0.185 C 
ENDROOT
BRANCH   6   7
ATOM      7  CB  CYS A  12      -9.828   0.763   9.555  1.00 20.43     0.105 C 
BRANCH   7   8
ATOM      8  SG  CYS A  12     -10.320   2.511   9.665  1.00 24.64    -0.180 SA
ATOM      9  H04 CYS A  12     -11.509   2.679   9.072  1.00 24.64     0.101 HD
ENDBRANCH   7   8
ENDBRANCH   6   7
END_RES CYS A  12
BEGIN_RES GLN A  14
REMARK  3 active torsions:
REMARK  status: ('A' for Active; 'I' for Inactive)
REMARK    5  A    between atoms: CA   and  CB  
REMARK    6  A    between atoms: CB   and  CG  
REMARK    7  A    between atoms: CG   and  CD  
REMARK       I    between atoms: CD   and  NE2 
ROOT
ATOM     10  CA  GLN A  14      -4.645   5.402  11.377  1.00 10.43     0.177 C 
ENDROOT
BRANCH  10  11
ATOM     11  CB  GLN A  14      -5.541   5.549  12.608  1.00 14.45     0.044 C 
BRANCH  11  12
ATOM     12  CG  GLN A  14      -6.615   6.603  12.467  1.00 13.74     0.105 C 
BRANCH  12  13
ATOM     13  CD  GLN A  14      -6.043   7.991  12.302  1.00 16.29     0.215 C 
ATOM     14  NE2 GLN A  14      -6.642   8.772  11.430  1.00  8.57    -0.370 N 
ATOM     15  H06 GLN A  14      -6.304   9.712  11.278  1.00  8.57     0.159 HD
ATOM     16  H07 GLN A  14      -7.439   8.432  10.912  1.00  8.57     0.159 HD
ATOM     17  OE1 GLN A  14      -5.077   8.356  12.954  1.00 23.55    -0.274 OA
ENDBRANCH  12  13
ENDBRANCH  11  12
ENDBRANCH  10  11
END_RES GLN A  14
BEGIN_RES SER A  16
REMARK  2 active torsions:
REMARK  status: ('A' for Active; 'I' for Inactive)
REMARK    8  A    between atoms: CA   and  CB  
REMARK    9  A    between atoms: CB   and  OG  
ROOT
ATOM     18  CA  SER A  16      -1.305  10.019  14.282  1.00  2.34     0.200 C 
ENDROOT
BRANCH  18  19
ATOM     19  CB  SER A  16      -2.242   9.935  15.479  1.00  3.12     0.199 C 
BRANCH  19  20
ATOM     20  OG  SER A  16      -3.467   9.331  15.104  1.00  1.00    -0.398 OA
ATOM     21  H04 SER A  16      -3.883   9.851  14.413  1.00  1.00     0.209 HD
ENDBRANCH  19  20
ENDBRANCH  18  19
END_RES SER A  16
BEGIN_RES LEU A  32
REMARK  2 active torsions:
REMARK  status: ('A' for Active; 'I' for Inactive)
REMARK   10  A    between atoms: CA   and  CB  
REMARK   11  A    between atoms: CB   and  CG  
ROOT
ATOM     22  CA  LEU A  32     -10.272  -4.106   1.587  1.00 16.16     0.177 C 
ENDROOT
BRANCH  22  23
ATOM     23  CB  LEU A  32     -11.613  -3.858   0.880  1.00 12.35     0.038 C 
BRANCH  23  24
ATOM     24  CG  LEU A  32     -12.472  -5.137   0.812  1.00  9.77    -0.020 C 
ATOM     25  CD1 LEU A  32     -13.009  -5.482   2.181  1.00  4.35     0.009 C 
ATOM     26  CD2 LEU A  32     -13.614  -4.967  -0.154  1.00 10.60     0.009 C 
ENDBRANCH  23  24
ENDBRANCH  22  23
END_RES LEU A  32
BEGIN_RES HIS A  38
REMARK  2 active torsions:
REMARK  status: ('A' for Active; 'I' for Inactive)
REMARK   12  A    between atoms: CA   and  CB  
REMARK   13  A    between atoms: CB   and  CG  
ROOT
ATOM     27  CA  HIS A  38     -10.959   4.941   1.621  1.00 16.94     0.182 C 
ENDROOT
BRANCH  27  28
ATOM     28  CB  HIS A  38     -11.810   4.840   2.881  1.00 15.47     0.095 C 
BRANCH  28  29
ATOM     29  CG  HIS A  38     -12.995   3.940   2.739  1.00 18.62     0.053 A 
ATOM     30  CD2 HIS A  38     -14.153   4.098   2.054  1.00 15.06     0.116 A 
ATOM     31  NE2 HIS A  38     -14.886   2.953   2.236  1.00 18.12    -0.359 N 
ATOM     32  CE1 HIS A  38     -14.206   2.124   3.004  1.00 14.78     0.207 A 
ATOM     33  H06 HIS A  38     -15.801   2.775   1.845  1.00 18.12     0.166 HD
ATOM     34  ND1 HIS A  38     -13.062   2.694   3.322  1.00 16.58    -0.247 NA
ENDBRANCH  28  29
ENDBRANCH  27  28
END_RES HIS A  38
BEGIN_RES TRP A  63
REMARK  2 active torsions:
REMARK  status: ('A' for Active; 'I' for Inactive)
REMARK   14  A    between atoms: CA   and  CB  
REMARK   15  A    between atoms: CB   and  CG  
ROOT
ATOM     35  CA  TRP A  63     -22.437   6.257   6.543  1.00 27.04     0.181 C 
ENDROOT
BRANCH  35  36
ATOM     36  CB  TRP A  63     -22.360   6.642   5.068  1.00 31.37     0.075 C 
BRANCH  36  37
ATOM     37  CG  TRP A  63     -20.953   6.816   4.536  1.00 34.37    -0.028 A 
ATOM     38  CD2 TRP A  63     -19.878   5.868   4.598  1.00 33.79    -0.002 A 
ATOM     39  CE3 TRP A  63     -19.733   4.599   5.161  1.00 32.99     0.014 A 
ATOM     40  CE2 TRP A  63     -18.782   6.436   3.913  1.00 35.84     0.042 A 
ATOM     41  CZ3 TRP A  63     -18.517   3.944   5.027  1.00 32.93     0.001 A 
ATOM     42  CH2 TRP A  63     -17.445   4.536   4.341  1.00 39.24     0.002 A 
ATOM     43  CZ2 TRP A  63     -17.558   5.778   3.777  1.00 37.99     0.030 A 
ATOM     44  NE1 TRP A  63     -19.175   7.666   3.461  1.00 37.98    -0.365 N 
ATOM     45  H06 TRP A  63     -18.602   8.309   2.934  1.00 37.98     0.165 HD
ATOM     46  CD1 TRP A  63     -20.477   7.884   3.842  1.00 38.16     0.096 A 
ENDBRANCH  36  37
ENDBRANCH  35  36
END_RES TRP A  63
BEGIN_RES LEU A  66
REMARK  2 active torsions:
REMARK  status: ('A' for Active; 'I' for Inactive)
REMARK   16  A    between atoms: CA   and  CB  
REMARK   17  A    between atoms: CB   and  CG  
ROOT
ATOM     47  CA  LEU A  66     -20.004   6.489  11.120  1.00 10.90     0.177 C 
ENDROOT
BRANCH  47  48
ATOM     48  CB  LEU A  66     -19.626   5.453  10.069  1.00 13.57     0.038 C 
BRANCH  48  49
ATOM     49  CG  LEU A  66     -18.820   4.243  10.538  1.00  8.73    -0.020 C 
ATOM     50  CD1 LEU A  66     -17.350   4.451  10.281  1.00 14.23     0.009 C 
ATOM     51  CD2 LEU A  66     -19.064   4.048  12.013  1.00  1.92     0.009 C 
ENDBRANCH  48  49
ENDBRANCH  47  48
END_RES LEU A  66
BEGIN_RES PHE A  70
REMARK  2 active torsions:
REMARK  status: ('A' for Active; 'I' for Inactive)
REMARK   18  A    between atoms: CA   and  CB  
REMARK   19  A    between atoms: CB   and  CG  
ROOT
ATOM     52  CA  PHE A  70     -14.974   9.434  13.165  1.00  8.78     0.180 C 
ENDROOT
BRANCH  52  53
ATOM     53  CB  PHE A  70     -14.707   9.132  11.681  1.00  6.33     0.073 C 
BRANCH  53  54
ATOM     54  CG  PHE A  70     -13.955   7.848  11.458  1.00  3.42    -0.056 A 
ATOM     55  CD1 PHE A  70     -13.433   7.130  12.523  1.00 13.88     0.007 A 
ATOM     56  CE1 PHE A  70     -12.691   5.956  12.304  1.00 12.71     0.001 A 
ATOM     57  CZ  PHE A  70     -12.471   5.497  11.005  1.00  4.21     0.000 A 
ATOM     58  CE2 PHE A  70     -12.989   6.203   9.935  1.00  2.83     0.001 A 
ATOM     59  CD2 PHE A  70     -13.729   7.375  10.164  1.00  1.00     0.007 A 
ENDBRANCH  53  54
ENDBRANCH  52  53
END_RES PHE A  70
BEGIN_RES TYR A  73
REMARK  3 active torsions:
REMARK  status: ('A' for Active; 'I' for Inactive)
REMARK   20  A    between atoms: CA   and  CB  
REMARK   21  A    between atoms: CB   and  CG  
REMARK   22  A    between atoms: CZ   and  OH  
ROOT
ATOM     60  CA  TYR A  73     -13.212  10.166  17.260  1.00 12.17     0.180 C 
ENDROOT
BRANCH  60  61
ATOM     61  CB  TYR A  73     -13.301   8.846  16.517  1.00 12.84     0.073 C 
BRANCH  61  62
ATOM     62  CG  TYR A  73     -13.437   7.674  17.424  1.00 15.89    -0.056 A 
ATOM     63  CD1 TYR A  73     -14.150   6.558  17.043  1.00 16.00     0.010 A 
ATOM     64  CE1 TYR A  73     -14.305   5.472  17.903  1.00 13.55     0.037 A 
ATOM     65  CZ  TYR A  73     -13.734   5.516  19.160  1.00 18.13     0.065 A 
ATOM     66  CE2 TYR A  73     -13.017   6.618  19.565  1.00 15.89     0.037 A 
ATOM     67  CD2 TYR A  73     -12.872   7.691  18.694  1.00 21.86     0.010 A 
BRANCH  65  68
ATOM     68  OH  TYR A  73     -13.870   4.455  20.021  1.00 12.12    -0.361 OA
ATOM     69  H08 TYR A  73     -13.369   3.706  19.688  1.00 12.12     0.217 HD
ENDBRANCH  65  68
ENDBRANCH  61  62
ENDBRANCH  60  61
END_RES TYR A  73
BEGIN_RES PHE A  77
REMARK  2 active torsions:
REMARK  status: ('A' for Active; 'I' for Inactive)
REMARK   23  A    between atoms: CA   and  CB  
REMARK   24  A    between atoms: CB   and  CG  
ROOT
ATOM     70  CA  PHE A  77      -8.400  10.581  20.110  1.00 17.17     0.180 C 
ENDROOT
BRANCH  70  71
ATOM     71  CB  PHE A  77      -8.228   9.750  18.851  1.00 10.44     0.073 C 
BRANCH  71  72
ATOM     72  CG  PHE A  77      -7.699   8.373  19.105  1.00  6.07    -0.056 A 
ATOM     73  CD2 PHE A  77      -7.373   7.545  18.056  1.00  9.61     0.007 A 
ATOM     74  CE2 PHE A  77      -6.879   6.265  18.282  1.00  1.00     0.001 A 
ATOM     75  CZ  PHE A  77      -6.708   5.810  19.578  1.00  1.92     0.000 A 
ATOM     76  CE1 PHE A  77      -7.029   6.627  20.639  1.00  9.25     0.001 A 
ATOM     77  CD1 PHE A  77      -7.524   7.908  20.398  1.00  9.63     0.007 A 
ENDBRANCH  71  72
ENDBRANCH  70  71
END_RES PHE A  77
BEGIN_RES LEU A  96
REMARK  2 active torsions:
REMARK  status: ('A' for Active; 'I' for Inactive)
REMARK   25  A    between atoms: CA   and  CB  
REMARK   26  A    between atoms: CB   and  CG  
ROOT
ATOM     78  CA  LEU A  96       0.717   6.481  17.359  1.00 16.08     0.177 C 
ENDROOT
BRANCH  78  79
ATOM     79  CB  LEU A  96      -0.370   7.101  18.230  1.00 18.83     0.038 C 
BRANCH  79  80
ATOM     80  CG  LEU A  96      -0.150   6.935  19.734  1.00 19.03    -0.020 C 
ATOM     81  CD1 LEU A  96       0.557   8.162  20.261  1.00 28.17     0.009 C 
ATOM     82  CD2 LEU A  96      -1.475   6.802  20.448  1.00 22.01     0.009 C 
ENDBRANCH  79  80
ENDBRANCH  78  79
END_RES LEU A  96
BEGIN_RES VAL A  98
REMARK  1 active torsions:
REMARK  status: ('A' for Active; 'I' for Inactive)
REMARK   27  A    between atoms: CA   and  CB  
ROOT
ATOM     83  CA  VAL A  98      -3.928   2.082  14.897  1.00 19.83     0.180 C 
ENDROOT
BRANCH  83  84
ATOM     84  CB  VAL A  98      -5.203   2.807  15.281  1.00 17.87     0.009 C 
ATOM     85  CG2 VAL A  98      -5.108   3.303  16.701  1.00 29.90     0.012 C 
ATOM     86  CG1 VAL A  98      -6.385   1.876  15.115  1.00 14.79     0.012 C 
ENDBRANCH  83  84
END_RES VAL A  98
BEGIN_RES ASN A 112
REMARK  2 active torsions:
REMARK  status: ('A' for Active; 'I' for Inactive)
REMARK   28  A    between atoms: CA   and  CB  
REMARK   29  A    between atoms: CB   and  CG  
REMARK       I    between atoms: CG   and  ND2 
ROOT
ATOM     87  CA  ASN A 112     -11.790  -8.793  14.069  1.00 37.70     0.185 C 
ENDROOT
BRANCH  87  88
ATOM     88  CB  ASN A 112     -12.992  -7.945  14.465  1.00 26.24     0.137 C 
BRANCH  88  89
ATOM     89  CG  ASN A 112     -13.817  -8.566  15.570  1.00 21.77     0.217 C 
ATOM     90  ND2 ASN A 112     -14.968  -9.128  15.200  1.00  9.31    -0.370 N 
ATOM     91  H04 ASN A 112     -15.565  -9.558  15.892  1.00  9.31     0.159 HD
ATOM     92  H05 ASN A 112     -15.242  -9.124  14.228  1.00  9.31     0.159 HD
ATOM     93  OD1 ASN A 112     -13.431  -8.538  16.744  1.00 21.61    -0.274 OA
ENDBRANCH  88  89
ENDBRANCH  87  88
END_RES ASN A 112
BEGIN_RES PHE A 114
REMARK  2 active torsions:
REMARK  status: ('A' for Active; 'I' for Inactive)
REMARK   30  A    between atoms: CA   and  CB  
REMARK   31  A    between atoms: CB   and  CG  
ROOT
ATOM     94  CA  PHE A 114      -7.754  -3.619  17.012  1.00 26.06     0.180 C 
ENDROOT
BRANCH  94  95
ATOM     95  CB  PHE A 114      -8.890  -3.080  17.867  1.00 19.95     0.073 C 
BRANCH  95  96
ATOM     96  CG  PHE A 114      -8.695  -1.658  18.282  1.00 17.65    -0.056 A 
ATOM     97  CD1 PHE A 114      -9.141  -1.210  19.522  1.00 13.01     0.007 A 
ATOM     98  CE1 PHE A 114      -8.987   0.118  19.897  1.00  6.74     0.001 A 
ATOM     99  CZ  PHE A 114      -8.378   1.021  19.031  1.00  6.27     0.000 A 
ATOM    100  CE2 PHE A 114      -7.929   0.587  17.794  1.00 17.36     0.001 A 
ATOM    101  CD2 PHE A 114      -8.089  -0.752  17.422  1.00 18.39     0.007 A 
ENDBRANCH  95  96
ENDBRANCH  94  95
END_RES PHE A 114
BEGIN_RES VAL A 116
REMARK  1 active torsions:
REMARK  status: ('A' for Active; 'I' for Inactive)
REMARK   32  A    between atoms: CA   and  CB  
ROOT
ATOM    102  CA  VAL A 116      -2.467   0.283  18.565  1.00 13.48     0.180 C 
ENDROOT
BRANCH 102 103
ATOM    103  CB  VAL A 116      -3.101   1.238  19.599  1.00 20.86     0.009 C 
ATOM    104  CG1 VAL A 116      -2.654   2.674  19.311  1.00 25.01     0.012 C 
ATOM    105  CG2 VAL A 116      -4.607   1.113  19.595  1.00 25.34     0.012 C 
ENDBRANCH 102 103
END_RES VAL A 116
BEGIN_RES ILE A 123
REMARK  2 active torsions:
REMARK  status: ('A' for Active; 'I' for Inactive)
REMARK   33  A    between atoms: CA   and  CB  
REMARK   34  A    between atoms: CB   and  CG1 
ROOT
ATOM    106  CA  ILE A 123       1.557  -1.626  23.222  1.00 15.07     0.180 C 
ENDROOT
BRANCH 106 107
ATOM    107  CB  ILE A 123       1.697  -0.112  23.461  1.00 14.41     0.013 C 
ATOM    108  CG2 ILE A 123       3.092   0.204  23.971  1.00 18.35     0.012 C 
BRANCH 107 109
ATOM    109  CG1 ILE A 123       1.420   0.656  22.171  1.00 15.23     0.002 C 
ATOM    110  CD1 ILE A 123       0.184   1.521  22.235  1.00 14.67     0.005 C 
ENDBRANCH 107 109
ENDBRANCH 106 107
END_RES ILE A 123
BEGIN_RES LEU A 124
REMARK  2 active torsions:
REMARK  status: ('A' for Active; 'I' for Inactive)
REMARK   35  A    between atoms: CA   and  CB  
REMARK   36  A    between atoms: CB   and  CG  
ROOT
ATOM    111  CA  LEU A 124      -2.057  -2.686  23.524  1.00 11.86     0.177 C 
ENDROOT
BRANCH 111 112
ATOM    112  CB  LEU A 124      -2.698  -1.652  24.429  1.00 14.60     0.038 C 
BRANCH 112 113
ATOM    113  CG  LEU A 124      -2.604  -0.249  23.849  1.00 16.19    -0.020 C 
ATOM    114  CD1 LEU A 124      -3.998   0.186  23.358  1.00 22.07     0.009 C 
ATOM    115  CD2 LEU A 124      -2.059   0.691  24.895  1.00  9.12     0.009 C 
ENDBRANCH 112 113
ENDBRANCH 111 112
END_RES LEU A 124
BEGIN_RES PHE A 126
REMARK  2 active torsions:
REMARK  status: ('A' for Active; 'I' for Inactive)
REMARK   37  A    between atoms: CA   and  CB  
REMARK   38  A    between atoms: CB   and  CG  
ROOT
ATOM    116  CA  PHE A 126      -8.784  -4.792  22.233  1.00 23.15     0.180 C 
ENDROOT
BRANCH 116 117
ATOM    117  CB  PHE A 126      -9.823  -4.011  21.461  1.00 20.65     0.073 C 
BRANCH 117 118
ATOM    118  CG  PHE A 126     -10.951  -3.545  22.296  1.00 23.65    -0.056 A 
ATOM    119  CD2 PHE A 126     -10.772  -2.532  23.222  1.00 36.63     0.007 A 
ATOM    120  CE2 PHE A 126     -11.843  -2.090  24.011  1.00 36.27     0.001 A 
ATOM    121  CZ  PHE A 126     -13.094  -2.671  23.869  1.00 18.06     0.000 A 
ATOM    122  CE1 PHE A 126     -13.276  -3.681  22.945  1.00  5.50     0.001 A 
ATOM    123  CD1 PHE A 126     -12.206  -4.112  22.161  1.00 15.29     0.007 A 
ENDBRANCH 117 118
ENDBRANCH 116 117
END_RES PHE A 126
BEGIN_RES TRP A 131
REMARK  2 active torsions:
REMARK  status: ('A' for Active; 'I' for Inactive)
REMARK   39  A    between atoms: CA   and  CB  
REMARK   40  A    between atoms: CB   and  CG  
ROOT
ATOM    124  CA  TRP A 131      -8.096  -3.335  26.542  1.00 14.52     0.181 C 
ENDROOT
BRANCH 124 125
ATOM    125  CB  TRP A 131      -7.651  -1.877  26.607  1.00 13.06     0.075 C 
BRANCH 125 126
ATOM    126  CG  TRP A 131      -8.026  -1.058  25.392  1.00 16.97    -0.028 A 
ATOM    127  CD2 TRP A 131      -9.112  -0.132  25.290  1.00 11.34    -0.002 A 
ATOM    128  CE2 TRP A 131      -9.088   0.406  23.989  1.00  5.87     0.042 A 
ATOM    129  CE3 TRP A 131     -10.105   0.292  26.180  1.00  3.80     0.014 A 
ATOM    130  CZ2 TRP A 131     -10.018   1.352  23.555  1.00  1.35     0.030 A 
ATOM    131  NE1 TRP A 131      -8.037  -0.166  23.326  1.00 13.90    -0.365 N 
ATOM    132  CH2 TRP A 131     -10.981   1.752  24.448  1.00  1.00     0.002 A 
ATOM    133  CZ3 TRP A 131     -11.031   1.228  25.754  1.00  1.00     0.001 A 
ATOM    134  CD1 TRP A 131      -7.403  -1.044  24.174  1.00 17.22     0.096 A 
ATOM    135  H07 TRP A 131      -7.770   0.025  22.371  1.00 13.90     0.165 HD
ENDBRANCH 125 126
ENDBRANCH 124 125
END_RES TRP A 131
BEGIN_RES LEU A 148
REMARK  2 active torsions:
REMARK  status: ('A' for Active; 'I' for Inactive)
REMARK   41  A    between atoms: CA   and  CB  
REMARK   42  A    between atoms: CB   and  CG  
ROOT
ATOM    136  CA  LEU A 148      -9.018   3.259  29.295  1.00 16.99     0.177 C 
ENDROOT
BRANCH 136 137
ATOM    137  CB  LEU A 148      -8.166   2.574  28.236  1.00  6.39     0.038 C 
BRANCH 137 138
ATOM    138  CG  LEU A 148      -8.012   3.169  26.851  1.00  1.00    -0.020 C 
ATOM    139  CD2 LEU A 148      -6.813   2.583  26.163  1.00  1.00     0.009 C 
ATOM    140  CD1 LEU A 148      -7.865   4.673  26.993  1.00  2.71     0.009 C 
ENDBRANCH 137 138
ENDBRANCH 136 137
END_RES LEU A 148
BEGIN_RES THR A 154
REMARK  2 active torsions:
REMARK  status: ('A' for Active; 'I' for Inactive)
REMARK   43  A    between atoms: CA   and  CB  
REMARK   44  A    between atoms: CB   and  OG1 
ROOT
ATOM    141  CA  THR A 154     -15.990   3.959  24.426  1.00 20.45     0.205 C 
ENDROOT
BRANCH 141 142
ATOM    142  CB  THR A 154     -14.777   4.829  24.694  1.00 16.79     0.146 C 
ATOM    143  CG2 THR A 154     -13.667   4.495  23.716  1.00 20.24     0.042 C 
BRANCH 142 144
ATOM    144  OG1 THR A 154     -15.145   6.204  24.525  1.00 18.84    -0.393 OA
ATOM    145  H06 THR A 154     -14.454   6.663  24.042  1.00 18.84     0.210 HD
ENDBRANCH 142 144
ENDBRANCH 141 142
END_RES THR A 154
BEGIN_RES VAL A 158
REMARK  1 active torsions:
REMARK  status: ('A' for Active; 'I' for Inactive)
REMARK   45  A    between atoms: CA   and  CB  
ROOT
ATOM    146  CA  VAL A 158     -15.487  -0.189  19.892  1.00 15.49     0.180 C 
ENDROOT
BRANCH 146 147
ATOM    147  CB  VAL A 158     -14.291  -0.273  20.822  1.00  6.52     0.009 C 
ATOM    148  CG1 VAL A 158     -13.256  -1.233  20.283  1.00  1.00     0.012 C 
ATOM    149  CG2 VAL A 158     -13.710   1.098  20.981  1.00  5.99     0.012 C 
ENDBRANCH 146 147
END_RES VAL A 158
BEGIN_RES LEU A 161
REMARK  2 active torsions:
REMARK  status: ('A' for Active; 'I' for Inactive)
REMARK   46  A    between atoms: CA   and  CB  
REMARK   47  A    between atoms: CB   and  CG  
ROOT
ATOM    150  CA  LEU A 161     -18.031  -1.858  15.935  1.00 13.31     0.177 C 
ENDROOT
BRANCH 150 151
ATOM    151  CB  LEU A 161     -17.046  -0.706  16.001  1.00 14.13     0.038 C 
BRANCH 151 152
ATOM    152  CG  LEU A 161     -17.418   0.546  15.217  1.00 19.39    -0.020 C 
ATOM    153  CD2 LEU A 161     -16.733   1.755  15.806  1.00 27.75     0.009 C 
ATOM    154  CD1 LEU A 161     -18.912   0.725  15.265  1.00 18.59     0.009 C 
ENDBRANCH 151 152
ENDBRANCH 150 151
END_RES LEU A 161
BEGIN_RES GLN A 168
REMARK  3 active torsions:
REMARK  status: ('A' for Active; 'I' for Inactive)
REMARK   48  A    between atoms: CA   and  CB  
REMARK   49  A    between atoms: CB   and  CG  
REMARK   50  A    between atoms: CG   and  CD  
REMARK       I    between atoms: CD   and  NE2 
ROOT
ATOM    155  CA  GLN A 168     -22.035  -6.020   8.155  1.00 30.94     0.177 C 
ENDROOT
BRANCH 155 156
ATOM    156  CB  GLN A 168     -23.054  -5.218   8.946  1.00 41.76     0.044 C 
BRANCH 156 157
ATOM    157  CG  GLN A 168     -24.464  -5.735   8.852  1.00 61.20     0.105 C 
BRANCH 157 158
ATOM    158  CD  GLN A 168     -25.068  -5.485   7.484  1.00 75.49     0.215 C 
ATOM    159  NE2 GLN A 168     -25.081  -4.217   7.068  1.00 85.00    -0.370 N 
ATOM    160  H06 GLN A 168     -25.472  -3.986   6.166  1.00 85.00     0.159 HD
ATOM    161  H07 GLN A 168     -24.699  -3.489   7.655  1.00 85.00     0.159 HD
ATOM    162  OE1 GLN A 168     -25.525  -6.417   6.807  1.00 73.64    -0.274 OA
ENDBRANCH 157 158
ENDBRANCH 156 157
ENDBRANCH 155 156
END_RES GLN A 168
ENDMDL
MODEL 9
REMARK VINA RESULT:      -9.9      2.242      6.460
REMARK  Name = 9548661
REMARK  9 active torsions:
REMARK  status: ('A' for Active; 'I' for Inactive)
REMARK    1  A    between atoms: O_1  and  C_11
REMARK    2  A    between atoms: O_2  and  C_24
REMARK    3  A    between atoms: C_5  and  C_19
REMARK    4  A    between atoms: C_9  and  C_22
REMARK    5  A    between atoms: C_10  and  C_20
REMARK    6  A    between atoms: C_20  and  C_25
REMARK    7  A    between atoms: C_20  and  C_26
REMARK    8  A    between atoms: C_25  and  C_27
REMARK    9  A    between atoms: C_27  and  C_28
REMARK                            x       y       z     vdW  Elec       q    Type
REMARK                         _______ _______ _______ _____ _____    ______ ____
ROOT
ATOM      1  C   UNL     1     -11.276   4.495  13.464  0.00  0.00    +0.000 C 
ATOM      2  C   UNL     1      -9.805   4.300  13.905  0.00  0.00    +0.000 C 
ATOM      3  C   UNL     1      -9.419   5.177  15.103  0.00  0.00    +0.000 C 
ATOM      4  C   UNL     1     -10.350   4.829  16.309  0.00  0.00    +0.000 C 
ATOM      5  C   UNL     1      -9.982   5.661  17.596  0.00  0.00    +0.000 C 
ATOM      6  C   UNL     1     -11.284   3.543  12.239  0.00  0.00    +0.000 C 
ATOM      7  C   UNL     1     -12.195   4.097  14.637  0.00  0.00    +0.000 C 
ATOM      8  C   UNL     1     -11.853   4.896  15.913  0.00  0.00    +0.000 C 
ATOM      9  C   UNL     1      -8.464   5.463  17.928  0.00  0.00    +0.000 C 
ATOM     10  C   UNL     1      -9.016   4.441  12.606  0.00  0.00    +0.000 C 
ATOM     11  C   UNL     1      -7.940   4.997  15.469  0.00  0.00    +0.000 C 
ATOM     12  C   UNL     1      -9.941   3.840  11.533  0.00  0.00    +0.000 C 
ATOM     13  C   UNL     1      -7.558   5.773  16.726  0.00  0.00    +0.000 C 
ATOM     14  C   UNL     1     -10.818   5.237  18.839  0.00  0.00    +0.000 C 
ATOM     15  C   UNL     1      -8.154   4.055  18.480  0.00  0.00    +0.000 C 
ATOM     16  C   UNL     1     -10.508   3.834  19.345  0.00  0.00    +0.000 C 
ATOM     17  C   UNL     1      -9.028   3.691  19.675  0.00  0.00    +0.000 C 
ATOM     18  H   UNL     1      -9.667   3.254  14.226  0.00  0.00    +0.000 HD
ATOM     19  H   UNL     1      -9.553   6.227  14.826  0.00  0.00    +0.000 HD
ATOM     20  H   UNL     1     -10.161   3.772  16.542  0.00  0.00    +0.000 HD
ATOM     21  H   UNL     1     -11.227   2.504  12.596  0.00  0.00    +0.000 HD
ATOM     22  H   UNL     1     -13.248   4.285  14.434  0.00  0.00    +0.000 HD
ATOM     23  H   UNL     1     -12.455   4.491  16.734  0.00  0.00    +0.000 HD
ATOM     24  H   UNL     1     -12.161   5.937  15.778  0.00  0.00    +0.000 HD
ATOM     25  H   UNL     1      -8.193   6.172  18.724  0.00  0.00    +0.000 HD
ATOM     26  H   UNL     1      -8.060   3.909  12.649  0.00  0.00    +0.000 HD
ATOM     27  H   UNL     1      -8.799   5.491  12.379  0.00  0.00    +0.000 HD
ATOM     28  H   UNL     1      -7.306   5.342  14.642  0.00  0.00    +0.000 HD
ATOM     29  H   UNL     1      -7.713   3.933  15.605  0.00  0.00    +0.000 HD
ATOM     30  H   UNL     1     -10.052   4.550  10.706  0.00  0.00    +0.000 HD
ATOM     31  H   UNL     1      -9.508   2.921  11.121  0.00  0.00    +0.000 HD
ATOM     32  H   UNL     1      -6.512   5.556  16.980  0.00  0.00    +0.000 HD
ATOM     33  H   UNL     1      -7.595   6.847  16.507  0.00  0.00    +0.000 HD
ATOM     34  H   UNL     1     -11.892   5.324  18.641  0.00  0.00    +0.000 HD
ATOM     35  H   UNL     1     -10.618   5.940  19.660  0.00  0.00    +0.000 HD
ATOM     36  H   UNL     1      -8.269   3.286  17.706  0.00  0.00    +0.000 HD
ATOM     37  H   UNL     1      -7.100   3.998  18.780  0.00  0.00    +0.000 HD
ATOM     38  H   UNL     1     -11.104   3.626  20.242  0.00  0.00    +0.000 HD
ATOM     39  H   UNL     1     -10.812   3.076  18.614  0.00  0.00    +0.000 HD
ATOM     40  H   UNL     1      -8.769   4.333  20.526  0.00  0.00    +0.000 HD
ENDROOT
BRANCH   1  41
ATOM     41  C   UNL     1     -11.608   5.948  13.033  0.00  0.00    +0.000 C 
ATOM     42  H   UNL     1     -10.713   6.529  12.791  0.00  0.00    +0.000 HD
ATOM     43  H   UNL     1     -12.252   5.967  12.149  0.00  0.00    +0.000 HD
ATOM     44  H   UNL     1     -12.140   6.507  13.808  0.00  0.00    +0.000 HD
ENDBRANCH   1  41
BRANCH   5  45
ATOM     45  C   UNL     1     -10.267   7.171  17.383  0.00  0.00    +0.000 C 
ATOM     46  H   UNL     1     -10.039   7.778  18.262  0.00  0.00    +0.000 HD
ATOM     47  H   UNL     1      -9.689   7.575  16.545  0.00  0.00    +0.000 HD
ATOM     48  H   UNL     1     -11.325   7.338  17.146  0.00  0.00    +0.000 HD
ENDBRANCH   5  45
BRANCH   7  49
ATOM     49  O   UNL     1     -12.066   2.704  14.926  0.00  0.00    +0.000 OA
ATOM     50  H   UNL     1     -12.960   2.344  15.051  0.00  0.00    +0.000 HD
ENDBRANCH   7  49
BRANCH  17  51
ATOM     51  O   UNL     1      -8.750   2.346  20.049  0.00  0.00    +0.000 OA
ATOM     52  H   UNL     1      -8.222   2.371  20.865  0.00  0.00    +0.000 HD
ENDBRANCH  17  51
BRANCH   6  53
ATOM     53  C   UNL     1     -12.482   3.652  11.305  0.00  0.00    +0.000 C 
ATOM     54  H   UNL     1     -13.154   4.445  11.651  0.00  0.00    +0.000 HD
BRANCH  53  55
ATOM     55  C   UNL     1     -13.272   2.339  11.309  0.00  0.00    +0.000 C 
ATOM     56  H   UNL     1     -14.156   2.390  10.668  0.00  0.00    +0.000 HD
ATOM     57  H   UNL     1     -13.686   2.125  12.294  0.00  0.00    +0.000 HD
ATOM     58  H   UNL     1     -12.673   1.494  10.956  0.00  0.00    +0.000 HD
ENDBRANCH  53  55
BRANCH  53  59
ATOM     59  C   UNL     1     -12.012   4.043   9.887  0.00  0.00    +0.000 C 
ATOM     60  H   UNL     1     -10.933   3.879   9.789  0.00  0.00    +0.000 HD
ATOM     61  H   UNL     1     -12.489   3.377   9.154  0.00  0.00    +0.000 HD
BRANCH  59  62
ATOM     62  C   UNL     1     -12.316   5.483   9.477  0.00  0.00    +0.000 C 
ATOM     63  H   UNL     1     -13.306   5.745   9.875  0.00  0.00    +0.000 HD
ATOM     64  H   UNL     1     -11.623   6.188   9.946  0.00  0.00    +0.000 HD
BRANCH  62  67
ATOM     65  O   UNL     1     -13.395   5.261   7.373  0.00  0.00    +0.000 OA
ATOM     66  O   UNL     1     -11.416   6.396   7.501  0.00  0.00    +0.000 OA
ATOM     67  C   UNL     1     -12.392   5.741   7.969  0.00  0.00    +0.000 C 
ENDBRANCH  62  67
ENDBRANCH  59  62
ENDBRANCH  53  59
ENDBRANCH   6  53
TORSDOF 9
BEGIN_RES LEU A  10
REMARK  2 active torsions:
REMARK  status: ('A' for Active; 'I' for Inactive)
REMARK    1  A    between atoms: CA   and  CB  
REMARK    2  A    between atoms: CB   and  CG  
ROOT
ATOM      1  CA  LEU A  10     -10.775  -4.871   5.898  1.00 25.14     0.177 C 
ENDROOT
BRANCH   1   2
ATOM      2  CB  LEU A  10     -12.191  -4.387   6.226  1.00 17.87     0.038 C 
BRANCH   2   3
ATOM      3  CG  LEU A  10     -12.404  -2.883   6.043  1.00 24.95    -0.020 C 
ATOM      4  CD2 LEU A  10     -13.663  -2.482   6.734  1.00 26.38     0.009 C 
ATOM      5  CD1 LEU A  10     -12.464  -2.518   4.569  1.00 28.12     0.009 C 
ENDBRANCH   2   3
ENDBRANCH   1   2
END_RES LEU A  10
BEGIN_RES CYS A  12
REMARK  2 active torsions:
REMARK  status: ('A' for Active; 'I' for Inactive)
REMARK    3  A    between atoms: CA   and  CB  
REMARK    4  A    between atoms: CB   and  SG  
ROOT
ATOM      6  CA  CYS A  12      -8.555   0.470   8.750  1.00 23.16     0.185 C 
ENDROOT
BRANCH   6   7
ATOM      7  CB  CYS A  12      -9.828   0.763   9.555  1.00 20.43     0.105 C 
BRANCH   7   8
ATOM      8  SG  CYS A  12     -11.403   0.506   8.682  1.00 24.64    -0.180 SA
ATOM      9  H04 CYS A  12     -12.119  -0.431   9.317  1.00 24.64     0.101 HD
ENDBRANCH   7   8
ENDBRANCH   6   7
END_RES CYS A  12
BEGIN_RES GLN A  14
REMARK  3 active torsions:
REMARK  status: ('A' for Active; 'I' for Inactive)
REMARK    5  A    between atoms: CA   and  CB  
REMARK    6  A    between atoms: CB   and  CG  
REMARK    7  A    between atoms: CG   and  CD  
REMARK       I    between atoms: CD   and  NE2 
ROOT
ATOM     10  CA  GLN A  14      -4.645   5.402  11.377  1.00 10.43     0.177 C 
ENDROOT
BRANCH  10  11
ATOM     11  CB  GLN A  14      -5.541   5.549  12.608  1.00 14.45     0.044 C 
BRANCH  11  12
ATOM     12  CG  GLN A  14      -6.375   6.810  12.617  1.00 13.74     0.105 C 
BRANCH  12  13
ATOM     13  CD  GLN A  14      -5.580   8.024  13.036  1.00 16.29     0.215 C 
ATOM     14  NE2 GLN A  14      -5.324   8.142  14.321  1.00  8.57    -0.370 N 
ATOM     15  H06 GLN A  14      -4.795   8.933  14.659  1.00  8.57     0.159 HD
ATOM     16  H07 GLN A  14      -5.655   7.442  14.968  1.00  8.57     0.159 HD
ATOM     17  OE1 GLN A  14      -5.200   8.842  12.213  1.00 23.55    -0.274 OA
ENDBRANCH  12  13
ENDBRANCH  11  12
ENDBRANCH  10  11
END_RES GLN A  14
BEGIN_RES SER A  16
REMARK  2 active torsions:
REMARK  status: ('A' for Active; 'I' for Inactive)
REMARK    8  A    between atoms: CA   and  CB  
REMARK    9  A    between atoms: CB   and  OG  
ROOT
ATOM     18  CA  SER A  16      -1.305  10.019  14.282  1.00  2.34     0.200 C 
ENDROOT
BRANCH  18  19
ATOM     19  CB  SER A  16      -2.242   9.935  15.479  1.00  3.12     0.199 C 
BRANCH  19  20
ATOM     20  OG  SER A  16      -2.145   8.662  16.092  1.00  1.00    -0.398 OA
ATOM     21  H04 SER A  16      -3.011   8.250  16.114  1.00  1.00     0.209 HD
ENDBRANCH  19  20
ENDBRANCH  18  19
END_RES SER A  16
BEGIN_RES LEU A  32
REMARK  2 active torsions:
REMARK  status: ('A' for Active; 'I' for Inactive)
REMARK   10  A    between atoms: CA   and  CB  
REMARK   11  A    between atoms: CB   and  CG  
ROOT
ATOM     22  CA  LEU A  32     -10.272  -4.106   1.587  1.00 16.16     0.177 C 
ENDROOT
BRANCH  22  23
ATOM     23  CB  LEU A  32     -11.613  -3.858   0.880  1.00 12.35     0.038 C 
BRANCH  23  24
ATOM     24  CG  LEU A  32     -12.547  -5.082   0.974  1.00  9.77    -0.020 C 
ATOM     25  CD1 LEU A  32     -13.018  -5.275   2.396  1.00  4.35     0.009 C 
ATOM     26  CD2 LEU A  32     -13.735  -4.922   0.062  1.00 10.60     0.009 C 
ENDBRANCH  23  24
ENDBRANCH  22  23
END_RES LEU A  32
BEGIN_RES HIS A  38
REMARK  2 active torsions:
REMARK  status: ('A' for Active; 'I' for Inactive)
REMARK   12  A    between atoms: CA   and  CB  
REMARK   13  A    between atoms: CB   and  CG  
ROOT
ATOM     27  CA  HIS A  38     -10.959   4.941   1.621  1.00 16.94     0.182 C 
ENDROOT
BRANCH  27  28
ATOM     28  CB  HIS A  38     -11.810   4.840   2.881  1.00 15.47     0.095 C 
BRANCH  28  29
ATOM     29  CG  HIS A  38     -13.001   3.949   2.735  1.00 18.62     0.053 A 
ATOM     30  CD2 HIS A  38     -14.164   4.123   2.063  1.00 15.06     0.116 A 
ATOM     31  NE2 HIS A  38     -14.902   2.980   2.234  1.00 18.12    -0.359 N 
ATOM     32  CE1 HIS A  38     -14.221   2.135   2.984  1.00 14.78     0.207 A 
ATOM     33  H06 HIS A  38     -15.821   2.813   1.848  1.00 18.12     0.166 HD
ATOM     34  ND1 HIS A  38     -13.070   2.695   3.301  1.00 16.58    -0.247 NA
ENDBRANCH  28  29
ENDBRANCH  27  28
END_RES HIS A  38
BEGIN_RES TRP A  63
REMARK  2 active torsions:
REMARK  status: ('A' for Active; 'I' for Inactive)
REMARK   14  A    between atoms: CA   and  CB  
REMARK   15  A    between atoms: CB   and  CG  
ROOT
ATOM     35  CA  TRP A  63     -22.437   6.257   6.543  1.00 27.04     0.181 C 
ENDROOT
BRANCH  35  36
ATOM     36  CB  TRP A  63     -22.360   6.642   5.068  1.00 31.37     0.075 C 
BRANCH  36  37
ATOM     37  CG  TRP A  63     -20.953   6.774   4.525  1.00 34.37    -0.028 A 
ATOM     38  CD2 TRP A  63     -19.887   5.821   4.636  1.00 33.79    -0.002 A 
ATOM     39  CE3 TRP A  63     -19.752   4.582   5.266  1.00 32.99     0.014 A 
ATOM     40  CE2 TRP A  63     -18.786   6.341   3.919  1.00 35.84     0.042 A 
ATOM     41  CZ3 TRP A  63     -18.542   3.910   5.165  1.00 32.93     0.001 A 
ATOM     42  CH2 TRP A  63     -17.466   4.454   4.446  1.00 39.24     0.002 A 
ATOM     43  CZ2 TRP A  63     -17.569   5.666   3.816  1.00 37.99     0.030 A 
ATOM     44  NE1 TRP A  63     -19.170   7.548   3.404  1.00 37.98    -0.365 N 
ATOM     45  H06 TRP A  63     -18.591   8.157   2.842  1.00 37.98     0.165 HD
ATOM     46  CD1 TRP A  63     -20.469   7.799   3.774  1.00 38.16     0.096 A 
ENDBRANCH  36  37
ENDBRANCH  35  36
END_RES TRP A  63
BEGIN_RES LEU A  66
REMARK  2 active torsions:
REMARK  status: ('A' for Active; 'I' for Inactive)
REMARK   16  A    between atoms: CA   and  CB  
REMARK   17  A    between atoms: CB   and  CG  
ROOT
ATOM     47  CA  LEU A  66     -20.004   6.489  11.120  1.00 10.90     0.177 C 
ENDROOT
BRANCH  47  48
ATOM     48  CB  LEU A  66     -19.626   5.453  10.069  1.00 13.57     0.038 C 
BRANCH  48  49
ATOM     49  CG  LEU A  66     -19.658   3.985  10.491  1.00  8.73    -0.020 C 
ATOM     50  CD1 LEU A  66     -18.855   3.140   9.536  1.00 14.23     0.009 C 
ATOM     51  CD2 LEU A  66     -19.089   3.875  11.882  1.00  1.92     0.009 C 
ENDBRANCH  48  49
ENDBRANCH  47  48
END_RES LEU A  66
BEGIN_RES PHE A  70
REMARK  2 active torsions:
REMARK  status: ('A' for Active; 'I' for Inactive)
REMARK   18  A    between atoms: CA   and  CB  
REMARK   19  A    between atoms: CB   and  CG  
ROOT
ATOM     52  CA  PHE A  70     -14.974   9.434  13.165  1.00  8.78     0.180 C 
ENDROOT
BRANCH  52  53
ATOM     53  CB  PHE A  70     -14.707   9.132  11.681  1.00  6.33     0.073 C 
BRANCH  53  54
ATOM     54  CG  PHE A  70     -15.085   7.733  11.278  1.00  3.42    -0.056 A 
ATOM     55  CD1 PHE A  70     -15.507   7.449   9.988  1.00 13.88     0.007 A 
ATOM     56  CE1 PHE A  70     -15.904   6.149   9.630  1.00 12.71     0.001 A 
ATOM     57  CZ  PHE A  70     -15.877   5.122  10.575  1.00  4.21     0.000 A 
ATOM     58  CE2 PHE A  70     -15.456   5.392  11.864  1.00  2.83     0.001 A 
ATOM     59  CD2 PHE A  70     -15.061   6.695  12.211  1.00  1.00     0.007 A 
ENDBRANCH  53  54
ENDBRANCH  52  53
END_RES PHE A  70
BEGIN_RES TYR A  73
REMARK  3 active torsions:
REMARK  status: ('A' for Active; 'I' for Inactive)
REMARK   20  A    between atoms: CA   and  CB  
REMARK   21  A    between atoms: CB   and  CG  
REMARK   22  A    between atoms: CZ   and  OH  
ROOT
ATOM     60  CA  TYR A  73     -13.212  10.166  17.260  1.00 12.17     0.180 C 
ENDROOT
BRANCH  60  61
ATOM     61  CB  TYR A  73     -13.301   8.846  16.517  1.00 12.84     0.073 C 
BRANCH  61  62
ATOM     62  CG  TYR A  73     -13.723   7.714  17.387  1.00 15.89    -0.056 A 
ATOM     63  CD1 TYR A  73     -14.255   6.563  16.848  1.00 16.00     0.010 A 
ATOM     64  CE1 TYR A  73     -14.680   5.514  17.663  1.00 13.55     0.037 A 
ATOM     65  CZ  TYR A  73     -14.566   5.633  19.034  1.00 18.13     0.065 A 
ATOM     66  CE2 TYR A  73     -14.037   6.771  19.597  1.00 15.89     0.037 A 
ATOM     67  CD2 TYR A  73     -13.618   7.806  18.770  1.00 21.86     0.010 A 
BRANCH  65  68
ATOM     68  OH  TYR A  73     -14.972   4.610  19.855  1.00 12.12    -0.361 OA
ATOM     69  H08 TYR A  73     -14.571   4.715  20.721  1.00 12.12     0.217 HD
ENDBRANCH  65  68
ENDBRANCH  61  62
ENDBRANCH  60  61
END_RES TYR A  73
BEGIN_RES PHE A  77
REMARK  2 active torsions:
REMARK  status: ('A' for Active; 'I' for Inactive)
REMARK   23  A    between atoms: CA   and  CB  
REMARK   24  A    between atoms: CB   and  CG  
ROOT
ATOM     70  CA  PHE A  77      -8.400  10.581  20.110  1.00 17.17     0.180 C 
ENDROOT
BRANCH  70  71
ATOM     71  CB  PHE A  77      -8.228   9.750  18.851  1.00 10.44     0.073 C 
BRANCH  71  72
ATOM     72  CG  PHE A  77      -7.065   8.809  18.904  1.00  6.07    -0.056 A 
ATOM     73  CD2 PHE A  77      -6.967   7.874  19.909  1.00  9.61     0.007 A 
ATOM     74  CE2 PHE A  77      -5.892   6.995  19.965  1.00  1.00     0.001 A 
ATOM     75  CZ  PHE A  77      -4.902   7.052  18.998  1.00  1.92     0.000 A 
ATOM     76  CE1 PHE A  77      -4.986   7.980  17.985  1.00  9.25     0.001 A 
ATOM     77  CD1 PHE A  77      -6.069   8.857  17.942  1.00  9.63     0.007 A 
ENDBRANCH  71  72
ENDBRANCH  70  71
END_RES PHE A  77
BEGIN_RES LEU A  96
REMARK  2 active torsions:
REMARK  status: ('A' for Active; 'I' for Inactive)
REMARK   25  A    between atoms: CA   and  CB  
REMARK   26  A    between atoms: CB   and  CG  
ROOT
ATOM     78  CA  LEU A  96       0.717   6.481  17.359  1.00 16.08     0.177 C 
ENDROOT
BRANCH  78  79
ATOM     79  CB  LEU A  96      -0.370   7.101  18.230  1.00 18.83     0.038 C 
BRANCH  79  80
ATOM     80  CG  LEU A  96      -0.150   6.936  19.734  1.00 19.03    -0.020 C 
ATOM     81  CD1 LEU A  96       0.563   8.159  20.260  1.00 28.17     0.009 C 
ATOM     82  CD2 LEU A  96      -1.475   6.809  20.450  1.00 22.01     0.009 C 
ENDBRANCH  79  80
ENDBRANCH  78  79
END_RES LEU A  96
BEGIN_RES VAL A  98
REMARK  1 active torsions:
REMARK  status: ('A' for Active; 'I' for Inactive)
REMARK   27  A    between atoms: CA   and  CB  
ROOT
ATOM     83  CA  VAL A  98      -3.928   2.082  14.897  1.00 19.83     0.180 C 
ENDROOT
BRANCH  83  84
ATOM     84  CB  VAL A  98      -5.203   2.807  15.281  1.00 17.87     0.009 C 
ATOM     85  CG2 VAL A  98      -5.270   2.978  16.776  1.00 29.90     0.012 C 
ATOM     86  CG1 VAL A  98      -6.400   2.030  14.775  1.00 14.79     0.012 C 
ENDBRANCH  83  84
END_RES VAL A  98
BEGIN_RES ASN A 112
REMARK  2 active torsions:
REMARK  status: ('A' for Active; 'I' for Inactive)
REMARK   28  A    between atoms: CA   and  CB  
REMARK   29  A    between atoms: CB   and  CG  
REMARK       I    between atoms: CG   and  ND2 
ROOT
ATOM     87  CA  ASN A 112     -11.790  -8.793  14.069  1.00 37.70     0.185 C 
ENDROOT
BRANCH  87  88
ATOM     88  CB  ASN A 112     -12.992  -7.945  14.465  1.00 26.24     0.137 C 
BRANCH  88  89
ATOM     89  CG  ASN A 112     -13.816  -8.565  15.571  1.00 21.77     0.217 C 
ATOM     90  ND2 ASN A 112     -14.966  -9.129  15.203  1.00  9.31    -0.370 N 
ATOM     91  H04 ASN A 112     -15.562  -9.558  15.896  1.00  9.31     0.159 HD
ATOM     92  H05 ASN A 112     -15.240  -9.127  14.231  1.00  9.31     0.159 HD
ATOM     93  OD1 ASN A 112     -13.429  -8.535  16.746  1.00 21.61    -0.274 OA
ENDBRANCH  88  89
ENDBRANCH  87  88
END_RES ASN A 112
BEGIN_RES PHE A 114
REMARK  2 active torsions:
REMARK  status: ('A' for Active; 'I' for Inactive)
REMARK   30  A    between atoms: CA   and  CB  
REMARK   31  A    between atoms: CB   and  CG  
ROOT
ATOM     94  CA  PHE A 114      -7.754  -3.619  17.012  1.00 26.06     0.180 C 
ENDROOT
BRANCH  94  95
ATOM     95  CB  PHE A 114      -8.890  -3.080  17.867  1.00 19.95     0.073 C 
BRANCH  95  96
ATOM     96  CG  PHE A 114      -9.201  -1.643  17.601  1.00 17.65    -0.056 A 
ATOM     97  CD1 PHE A 114     -10.519  -1.204  17.508  1.00 13.01     0.007 A 
ATOM     98  CE1 PHE A 114     -10.809   0.125  17.231  1.00  6.74     0.001 A 
ATOM     99  CZ  PHE A 114      -9.776   1.040  17.047  1.00  6.27     0.000 A 
ATOM    100  CE2 PHE A 114      -8.461   0.616  17.139  1.00 17.36     0.001 A 
ATOM    101  CD2 PHE A 114      -8.176  -0.726  17.416  1.00 18.39     0.007 A 
ENDBRANCH  95  96
ENDBRANCH  94  95
END_RES PHE A 114
BEGIN_RES VAL A 116
REMARK  1 active torsions:
REMARK  status: ('A' for Active; 'I' for Inactive)
REMARK   32  A    between atoms: CA   and  CB  
ROOT
ATOM    102  CA  VAL A 116      -2.467   0.283  18.565  1.00 13.48     0.180 C 
ENDROOT
BRANCH 102 103
ATOM    103  CB  VAL A 116      -3.101   1.238  19.599  1.00 20.86     0.009 C 
ATOM    104  CG1 VAL A 116      -2.755   2.685  19.238  1.00 25.01     0.012 C 
ATOM    105  CG2 VAL A 116      -4.595   1.027  19.682  1.00 25.34     0.012 C 
ENDBRANCH 102 103
END_RES VAL A 116
BEGIN_RES ILE A 123
REMARK  2 active torsions:
REMARK  status: ('A' for Active; 'I' for Inactive)
REMARK   33  A    between atoms: CA   and  CB  
REMARK   34  A    between atoms: CB   and  CG1 
ROOT
ATOM    106  CA  ILE A 123       1.557  -1.626  23.222  1.00 15.07     0.180 C 
ENDROOT
BRANCH 106 107
ATOM    107  CB  ILE A 123       1.697  -0.112  23.461  1.00 14.41     0.013 C 
ATOM    108  CG2 ILE A 123       3.088   0.203  23.982  1.00 18.35     0.012 C 
BRANCH 107 109
ATOM    109  CG1 ILE A 123       1.431   0.656  22.168  1.00 15.23     0.002 C 
ATOM    110  CD1 ILE A 123       0.181   1.500  22.212  1.00 14.67     0.005 C 
ENDBRANCH 107 109
ENDBRANCH 106 107
END_RES ILE A 123
BEGIN_RES LEU A 124
REMARK  2 active torsions:
REMARK  status: ('A' for Active; 'I' for Inactive)
REMARK   35  A    between atoms: CA   and  CB  
REMARK   36  A    between atoms: CB   and  CG  
ROOT
ATOM    111  CA  LEU A 124      -2.057  -2.686  23.524  1.00 11.86     0.177 C 
ENDROOT
BRANCH 111 112
ATOM    112  CB  LEU A 124      -2.698  -1.652  24.429  1.00 14.60     0.038 C 
BRANCH 112 113
ATOM    113  CG  LEU A 124      -2.618  -0.251  23.842  1.00 16.19    -0.020 C 
ATOM    114  CD1 LEU A 124      -4.022   0.181  23.380  1.00 22.07     0.009 C 
ATOM    115  CD2 LEU A 124      -2.050   0.693  24.872  1.00  9.12     0.009 C 
ENDBRANCH 112 113
ENDBRANCH 111 112
END_RES LEU A 124
BEGIN_RES PHE A 126
REMARK  2 active torsions:
REMARK  status: ('A' for Active; 'I' for Inactive)
REMARK   37  A    between atoms: CA   and  CB  
REMARK   38  A    between atoms: CB   and  CG  
ROOT
ATOM    116  CA  PHE A 126      -8.784  -4.792  22.233  1.00 23.15     0.180 C 
ENDROOT
BRANCH 116 117
ATOM    117  CB  PHE A 126      -9.823  -4.011  21.461  1.00 20.65     0.073 C 
BRANCH 117 118
ATOM    118  CG  PHE A 126     -10.952  -3.547  22.296  1.00 23.65    -0.056 A 
ATOM    119  CD2 PHE A 126     -10.773  -2.542  23.230  1.00 36.63     0.007 A 
ATOM    120  CE2 PHE A 126     -11.844  -2.102  24.019  1.00 36.27     0.001 A 
ATOM    121  CZ  PHE A 126     -13.097  -2.677  23.867  1.00 18.06     0.000 A 
ATOM    122  CE1 PHE A 126     -13.280  -3.679  22.935  1.00  5.50     0.001 A 
ATOM    123  CD1 PHE A 126     -12.209  -4.108  22.151  1.00 15.29     0.007 A 
ENDBRANCH 117 118
ENDBRANCH 116 117
END_RES PHE A 126
BEGIN_RES TRP A 131
REMARK  2 active torsions:
REMARK  status: ('A' for Active; 'I' for Inactive)
REMARK   39  A    between atoms: CA   and  CB  
REMARK   40  A    between atoms: CB   and  CG  
ROOT
ATOM    124  CA  TRP A 131      -8.096  -3.335  26.542  1.00 14.52     0.181 C 
ENDROOT
BRANCH 124 125
ATOM    125  CB  TRP A 131      -7.651  -1.877  26.607  1.00 13.06     0.075 C 
BRANCH 125 126
ATOM    126  CG  TRP A 131      -8.042  -1.054  25.400  1.00 16.97    -0.028 A 
ATOM    127  CD2 TRP A 131      -9.123  -0.122  25.318  1.00 11.34    -0.002 A 
ATOM    128  CE2 TRP A 131      -9.118   0.419  24.017  1.00  5.87     0.042 A 
ATOM    129  CE3 TRP A 131     -10.099   0.307  26.224  1.00  3.80     0.014 A 
ATOM    130  CZ2 TRP A 131     -10.050   1.371  23.600  1.00  1.35     0.030 A 
ATOM    131  NE1 TRP A 131      -8.081  -0.158  23.336  1.00 13.90    -0.365 N 
ATOM    132  CH2 TRP A 131     -10.995   1.775  24.510  1.00  1.00     0.002 A 
ATOM    133  CZ3 TRP A 131     -11.027   1.248  25.816  1.00  1.00     0.001 A 
ATOM    134  CD1 TRP A 131      -7.439  -1.041  24.172  1.00 17.22     0.096 A 
ATOM    135  H07 TRP A 131      -7.829   0.034  22.377  1.00 13.90     0.165 HD
ENDBRANCH 125 126
ENDBRANCH 124 125
END_RES TRP A 131
BEGIN_RES LEU A 148
REMARK  2 active torsions:
REMARK  status: ('A' for Active; 'I' for Inactive)
REMARK   41  A    between atoms: CA   and  CB  
REMARK   42  A    between atoms: CB   and  CG  
ROOT
ATOM    136  CA  LEU A 148      -9.018   3.259  29.295  1.00 16.99     0.177 C 
ENDROOT
BRANCH 136 137
ATOM    137  CB  LEU A 148      -8.166   2.574  28.236  1.00  6.39     0.038 C 
BRANCH 137 138
ATOM    138  CG  LEU A 148      -7.544   3.363  27.102  1.00  1.00    -0.020 C 
ATOM    139  CD2 LEU A 148      -8.611   4.031  26.286  1.00  1.00     0.009 C 
ATOM    140  CD1 LEU A 148      -6.736   2.406  26.244  1.00  2.71     0.009 C 
ENDBRANCH 137 138
ENDBRANCH 136 137
END_RES LEU A 148
BEGIN_RES THR A 154
REMARK  2 active torsions:
REMARK  status: ('A' for Active; 'I' for Inactive)
REMARK   43  A    between atoms: CA   and  CB  
REMARK   44  A    between atoms: CB   and  OG1 
ROOT
ATOM    141  CA  THR A 154     -15.990   3.959  24.426  1.00 20.45     0.205 C 
ENDROOT
BRANCH 141 142
ATOM    142  CB  THR A 154     -14.777   4.829  24.694  1.00 16.79     0.146 C 
ATOM    143  CG2 THR A 154     -13.669   4.499  23.713  1.00 20.24     0.042 C 
BRANCH 142 144
ATOM    144  OG1 THR A 154     -15.146   6.204  24.530  1.00 18.84    -0.393 OA
ATOM    145  H06 THR A 154     -14.475   6.657  24.014  1.00 18.84     0.210 HD
ENDBRANCH 142 144
ENDBRANCH 141 142
END_RES THR A 154
BEGIN_RES VAL A 158
REMARK  1 active torsions:
REMARK  status: ('A' for Active; 'I' for Inactive)
REMARK   45  A    between atoms: CA   and  CB  
ROOT
ATOM    146  CA  VAL A 158     -15.487  -0.189  19.892  1.00 15.49     0.180 C 
ENDROOT
BRANCH 146 147
ATOM    147  CB  VAL A 158     -14.291  -0.273  20.822  1.00  6.52     0.009 C 
ATOM    148  CG1 VAL A 158     -13.250  -1.223  20.277  1.00  1.00     0.012 C 
ATOM    149  CG2 VAL A 158     -13.718   1.100  20.992  1.00  5.99     0.012 C 
ENDBRANCH 146 147
END_RES VAL A 158
BEGIN_RES LEU A 161
REMARK  2 active torsions:
REMARK  status: ('A' for Active; 'I' for Inactive)
REMARK   46  A    between atoms: CA   and  CB  
REMARK   47  A    between atoms: CB   and  CG  
ROOT
ATOM    150  CA  LEU A 161     -18.031  -1.858  15.935  1.00 13.31     0.177 C 
ENDROOT
BRANCH 150 151
ATOM    151  CB  LEU A 161     -17.046  -0.706  16.001  1.00 14.13     0.038 C 
BRANCH 151 152
ATOM    152  CG  LEU A 161     -17.514   0.616  15.406  1.00 19.39    -0.020 C 
ATOM    153  CD2 LEU A 161     -17.210   0.661  13.928  1.00 27.75     0.009 C 
ATOM    154  CD1 LEU A 161     -16.809   1.744  16.112  1.00 18.59     0.009 C 
ENDBRANCH 151 152
ENDBRANCH 150 151
END_RES LEU A 161
BEGIN_RES GLN A 168
REMARK  3 active torsions:
REMARK  status: ('A' for Active; 'I' for Inactive)
REMARK   48  A    between atoms: CA   and  CB  
REMARK   49  A    between atoms: CB   and  CG  
REMARK   50  A    between atoms: CG   and  CD  
REMARK       I    between atoms: CD   and  NE2 
ROOT
ATOM    155  CA  GLN A 168     -22.035  -6.020   8.155  1.00 30.94     0.177 C 
ENDROOT
BRANCH 155 156
ATOM    156  CB  GLN A 168     -23.054  -5.218   8.946  1.00 41.76     0.044 C 
BRANCH 156 157
ATOM    157  CG  GLN A 168     -24.321  -5.963   9.268  1.00 61.20     0.105 C 
BRANCH 157 158
ATOM    158  CD  GLN A 168     -24.491  -6.171  10.760  1.00 75.49     0.215 C 
ATOM    159  NE2 GLN A 168     -23.654  -7.037  11.334  1.00 85.00    -0.370 N 
ATOM    160  H06 GLN A 168     -23.719  -7.220  12.325  1.00 85.00     0.159 HD
ATOM    161  H07 GLN A 168     -22.955  -7.509  10.777  1.00 85.00     0.159 HD
ATOM    162  OE1 GLN A 168     -25.369  -5.568  11.393  1.00 73.64    -0.274 OA
ENDBRANCH 157 158
ENDBRANCH 156 157
ENDBRANCH 155 156
END_RES GLN A 168
ENDMDL
