MODEL 1
REMARK VINA RESULT:      -7.0      0.000      0.000
REMARK  Name = human_CD1d_tween80_pred.rank_0
REMARK  81 active torsions:
REMARK  status: ('A' for Active; 'I' for Inactive)
REMARK    1  A    between atoms: C_1  and  C_3
REMARK    2  A    between atoms: C_3  and  O_4
REMARK    3  A    between atoms: O_4  and  C_5
REMARK    4  A    between atoms: C_5  and  C_7
REMARK    5  A    between atoms: O_6  and  C_7
REMARK    6  A    between atoms: O_6  and  C_9
REMARK    7  A    between atoms: O_8  and  C_11
REMARK    8  A    between atoms: O_8  and  C_13
REMARK    9  A    between atoms: C_9  and  C_11
REMARK   10  A    between atoms: O_10  and  C_15
REMARK   11  A    between atoms: O_10  and  C_17
REMARK   12  A    between atoms: O_12  and  C_19
REMARK   13  A    between atoms: O_12  and  C_21
REMARK   14  A    between atoms: C_13  and  C_15
REMARK   15  A    between atoms: O_14  and  C_23
REMARK   16  A    between atoms: O_14  and  C_25
REMARK   17  A    between atoms: O_16  and  C_27
REMARK   18  A    between atoms: O_16  and  C_29
REMARK   19  A    between atoms: C_17  and  C_19
REMARK   20  A    between atoms: O_18  and  C_31
REMARK   21  A    between atoms: O_18  and  C_33
REMARK   22  A    between atoms: O_20  and  C_35
REMARK   23  A    between atoms: O_20  and  C_37
REMARK   24  A    between atoms: C_21  and  C_23
REMARK   25  A    between atoms: C_21  and  C_67
REMARK   26  A    between atoms: O_22  and  C_39
REMARK   27  A    between atoms: O_22  and  C_41
REMARK   28  A    between atoms: O_24  and  C_43
REMARK   29  A    between atoms: O_24  and  C_45
REMARK   30  A    between atoms: C_25  and  C_27
REMARK   31  A    between atoms: O_28  and  C_69
REMARK   32  A    between atoms: O_28  and  C_70
REMARK   33  A    between atoms: C_29  and  C_31
REMARK   34  A    between atoms: O_30  and  C_71
REMARK   35  A    between atoms: O_30  and  C_72
REMARK   36  A    between atoms: O_32  and  C_73
REMARK   37  A    between atoms: O_32  and  C_74
REMARK   38  A    between atoms: C_33  and  C_35
REMARK   39  A    between atoms: O_34  and  C_75
REMARK   40  A    between atoms: O_34  and  C_76
REMARK   41  A    between atoms: O_36  and  C_77
REMARK   42  A    between atoms: O_36  and  C_78
REMARK   43  A    between atoms: C_37  and  C_39
REMARK   44  A    between atoms: O_40  and  C_80
REMARK   45  A    between atoms: O_40  and  C_81
REMARK   46  A    between atoms: C_41  and  C_43
REMARK   47  A    between atoms: O_42  and  C_82
REMARK   48  A    between atoms: O_42  and  C_83
REMARK   49  A    between atoms: O_44  and  C_84
REMARK   50  A    between atoms: O_44  and  C_85
REMARK   51  A    between atoms: C_45  and  C_47
REMARK   52  A    between atoms: O_46  and  C_86
REMARK   53  A    between atoms: O_46  and  C_87
REMARK   54  A    between atoms: C_47  and  C_49
REMARK   55  A    between atoms: O_48  and  C_88
REMARK   56  A    between atoms: O_48  and  C_89
REMARK   57  A    between atoms: C_49  and  C_51
REMARK   58  A    between atoms: C_51  and  C_53
REMARK   59  A    between atoms: C_53  and  C_54
REMARK   60  A    between atoms: C_54  and  C_55
REMARK   61  A    between atoms: C_55  and  C_56
REMARK   62  A    between atoms: C_56  and  C_57
REMARK   63  A    between atoms: C_57  and  C_58
REMARK   64  A    between atoms: C_58  and  C_59
REMARK   65  A    between atoms: C_59  and  C_60
REMARK   66  A    between atoms: C_60  and  C_61
REMARK   67  A    between atoms: C_61  and  C_62
REMARK   68  A    between atoms: C_62  and  C_63
REMARK   69  A    between atoms: C_63  and  C_64
REMARK   70  A    between atoms: C_64  and  C_65
REMARK   71  A    between atoms: C_67  and  C_68
REMARK   72  A    between atoms: C_70  and  C_71
REMARK   73  A    between atoms: C_72  and  C_73
REMARK   74  A    between atoms: C_74  and  C_75
REMARK   75  A    between atoms: C_76  and  C_77
REMARK   76  A    between atoms: C_78  and  C_79
REMARK   77  A    between atoms: C_81  and  C_82
REMARK   78  A    between atoms: C_83  and  C_84
REMARK   79  A    between atoms: C_85  and  C_86
REMARK   80  A    between atoms: C_87  and  C_88
REMARK   81  A    between atoms: C_89  and  C_90
REMARK                            x       y       z     vdW  Elec       q    Type
REMARK                         _______ _______ _______ _____ _____    ______ ____
ROOT
ATOM      1  C   UNL     1     -12.270   4.256  18.611  0.00  0.00    +0.000 C 
ENDROOT
BRANCH   1   2
ATOM      2  C   UNL     1     -11.610   3.525  19.961  0.00  0.00    +0.000 C 
BRANCH   2   4
ATOM      3  O   UNL     1      -9.526   2.324  20.166  0.00  0.00    +0.000 OA
ATOM      4  C   UNL     1     -10.117   3.553  19.927  0.00  0.00    +0.000 C 
ATOM      5  C   UNL     1      -9.494   4.307  21.134  0.00  0.00    +0.000 C 
ATOM      6  C   UNL     1      -8.047   3.735  21.088  0.00  0.00    +0.000 C 
ATOM      7  C   UNL     1      -8.207   2.376  20.549  0.00  0.00    +0.000 C 
BRANCH   6   8
ATOM      8  O   UNL     1      -7.593   3.614  22.427  0.00  0.00    +0.000 OA
BRANCH   8   9
ATOM      9  C   UNL     1      -6.344   4.288  22.708  0.00  0.00    +0.000 C 
BRANCH   9  10
ATOM     10  C   UNL     1      -6.637   5.675  23.216  0.00  0.00    +0.000 C 
BRANCH  10  11
ATOM     11  O   UNL     1      -5.715   6.007  24.237  0.00  0.00    +0.000 OA
BRANCH  11  12
ATOM     12  C   UNL     1      -4.864   7.066  23.840  0.00  0.00    +0.000 C 
BRANCH  12  13
ATOM     13  C   UNL     1      -3.456   6.605  23.550  0.00  0.00    +0.000 C 
BRANCH  13  14
ATOM     14  O   UNL     1      -3.304   6.600  22.127  0.00  0.00    +0.000 OA
BRANCH  14  15
ATOM     15  C   UNL     1      -2.941   5.356  21.627  0.00  0.00    +0.000 C 
BRANCH  15  16
ATOM     16  C   UNL     1      -2.710   4.367  22.801  0.00  0.00    +0.000 C 
BRANCH  16  17
ATOM     17  O   UNL     1      -1.462   3.806  22.615  0.00  0.00    +0.000 OA
BRANCH  17  18
ATOM     18  C   UNL     1      -0.481   4.301  23.544  0.00  0.00    +0.000 C 
BRANCH  18  19
ATOM     19  C   UNL     1      -1.063   4.116  24.945  0.00  0.00    +0.000 C 
BRANCH  19  20
ATOM     20  O   UNL     1      -0.304   4.781  25.880  0.00  0.00    +0.000 OA
BRANCH  20  21
ATOM     21  C   UNL     1      -0.618   6.146  25.926  0.00  0.00    +0.000 C 
BRANCH  21  23
ATOM     22  O   UNL     1       1.497   6.647  24.954  0.00  0.00    +0.000 OA
ATOM     23  C   UNL     1       0.629   6.975  26.062  0.00  0.00    +0.000 C 
ENDBRANCH  21  23
ENDBRANCH  20  21
ENDBRANCH  19  20
ENDBRANCH  18  19
ENDBRANCH  17  18
ENDBRANCH  16  17
ENDBRANCH  15  16
ENDBRANCH  14  15
ENDBRANCH  13  14
ENDBRANCH  12  13
ENDBRANCH  11  12
ENDBRANCH  10  11
ENDBRANCH   9  10
ENDBRANCH   8   9
ENDBRANCH   6   8
BRANCH   5  24
ATOM     24  O   UNL     1      -9.494   5.697  20.900  0.00  0.00    +0.000 OA
BRANCH  24  25
ATOM     25  C   UNL     1      -9.892   6.459  22.025  0.00  0.00    +0.000 C 
BRANCH  25  26
ATOM     26  C   UNL     1     -10.386   5.587  23.161  0.00  0.00    +0.000 C 
BRANCH  26  27
ATOM     27  O   UNL     1      -9.930   6.143  24.376  0.00  0.00    +0.000 OA
BRANCH  27  28
ATOM     28  C   UNL     1     -10.972   6.362  25.313  0.00  0.00    +0.000 C 
BRANCH  28  29
ATOM     29  C   UNL     1     -10.562   6.012  26.728  0.00  0.00    +0.000 C 
BRANCH  29  30
ATOM     30  O   UNL     1     -10.629   7.158  27.551  0.00  0.00    +0.000 OA
BRANCH  30  31
ATOM     31  C   UNL     1      -9.371   7.827  27.711  0.00  0.00    +0.000 C 
BRANCH  31  32
ATOM     32  C   UNL     1      -9.571   9.136  28.468  0.00  0.00    +0.000 C 
BRANCH  32  33
ATOM     33  O   UNL     1     -10.706   9.846  28.013  0.00  0.00    +0.000 OA
BRANCH  33  34
ATOM     34  C   UNL     1     -11.342  10.587  29.029  0.00  0.00    +0.000 C 
BRANCH  34  35
ATOM     35  C   UNL     1     -12.809  10.144  29.220  0.00  0.00    +0.000 C 
BRANCH  35  36
ATOM     36  O   UNL     1     -12.821   8.840  29.733  0.00  0.00    +0.000 OA
BRANCH  36  37
ATOM     37  C   UNL     1     -13.060   8.884  31.130  0.00  0.00    +0.000 C 
BRANCH  37  39
ATOM     38  O   UNL     1     -12.926   6.660  32.013  0.00  0.00    +0.000 OA
ATOM     39  C   UNL     1     -13.829   7.675  31.575  0.00  0.00    +0.000 C 
ENDBRANCH  37  39
ENDBRANCH  36  37
ENDBRANCH  35  36
ENDBRANCH  34  35
ENDBRANCH  33  34
ENDBRANCH  32  33
ENDBRANCH  31  32
ENDBRANCH  30  31
ENDBRANCH  29  30
ENDBRANCH  28  29
ENDBRANCH  27  28
ENDBRANCH  26  27
ENDBRANCH  25  26
ENDBRANCH  24  25
ENDBRANCH   5  24
ENDBRANCH   2   4
ENDBRANCH   1   2
BRANCH   1  40
ATOM     40  O   UNL     1     -13.221   5.227  19.069  0.00  0.00    +0.000 OA
BRANCH  40  41
ATOM     41  C   UNL     1     -14.417   4.602  19.500  0.00  0.00    +0.000 C 
BRANCH  41  42
ATOM     42  C   UNL     1     -15.647   5.419  19.092  0.00  0.00    +0.000 C 
BRANCH  42  43
ATOM     43  O   UNL     1     -15.234   6.584  18.475  0.00  0.00    +0.000 OA
BRANCH  43  44
ATOM     44  C   UNL     1     -15.712   7.762  19.124  0.00  0.00    +0.000 C 
BRANCH  44  45
ATOM     45  C   UNL     1     -17.195   7.609  19.410  0.00  0.00    +0.000 C 
BRANCH  45  46
ATOM     46  O   UNL     1     -17.690   8.803  19.930  0.00  0.00    +0.000 OA
BRANCH  46  47
ATOM     47  C   UNL     1     -16.724   9.476  20.675  0.00  0.00    +0.000 C 
BRANCH  47  48
ATOM     48  C   UNL     1     -17.384  10.101  21.905  0.00  0.00    +0.000 C 
BRANCH  48  49
ATOM     49  O   UNL     1     -16.745   9.612  23.058  0.00  0.00    +0.000 OA
BRANCH  49  50
ATOM     50  C   UNL     1     -16.133  10.611  23.842  0.00  0.00    +0.000 C 
BRANCH  50  51
ATOM     51  C   UNL     1     -15.474   9.940  25.032  0.00  0.00    +0.000 C 
BRANCH  51  52
ATOM     52  O   UNL     1     -14.632   8.895  24.507  0.00  0.00    +0.000 OA
BRANCH  52  53
ATOM     53  C   UNL     1     -13.393   9.395  23.995  0.00  0.00    +0.000 C 
BRANCH  53  54
ATOM     54  C   UNL     1     -12.868   8.546  22.894  0.00  0.00    +0.000 C 
ATOM     55  O   UNL     1     -13.945   7.823  22.325  0.00  0.00    +0.000 OA
ENDBRANCH  53  54
ENDBRANCH  52  53
ENDBRANCH  51  52
ENDBRANCH  50  51
ENDBRANCH  49  50
ENDBRANCH  48  49
ENDBRANCH  47  48
ENDBRANCH  46  47
ENDBRANCH  45  46
ENDBRANCH  44  45
ENDBRANCH  43  44
ENDBRANCH  42  43
ENDBRANCH  41  42
ENDBRANCH  40  41
ENDBRANCH   1  40
BRANCH   1  56
ATOM     56  C   UNL     1     -12.917   3.176  17.799  0.00  0.00    +0.000 C 
BRANCH  56  57
ATOM     57  O   UNL     1     -12.803   3.552  16.491  0.00  0.00    +0.000 OA
BRANCH  57  58
ATOM     58  C   UNL     1     -11.407   3.862  16.209  0.00  0.00    +0.000 C 
BRANCH  58  59
ATOM     59  C   UNL     1     -11.188   3.945  14.712  0.00  0.00    +0.000 C 
BRANCH  59  60
ATOM     60  O   UNL     1     -10.304   2.923  14.323  0.00  0.00    +0.000 OA
BRANCH  60  61
ATOM     61  C   UNL     1      -9.073   3.440  13.881  0.00  0.00    +0.000 C 
BRANCH  61  62
ATOM     62  C   UNL     1      -9.374   4.497  12.810  0.00  0.00    +0.000 C 
BRANCH  62  63
ATOM     63  O   UNL     1      -8.816   4.052  11.559  0.00  0.00    +0.000 OA
BRANCH  63  64
ATOM     64  C   UNL     1      -8.988   5.035  10.532  0.00  0.00    +0.000 C 
BRANCH  64  65
ATOM     65  C   UNL     1      -9.480   4.382   9.254  0.00  0.00    +0.000 C 
BRANCH  65  66
ATOM     66  O   UNL     1      -9.067   5.201   8.153  0.00  0.00    +0.000 OA
BRANCH  66  67
ATOM     67  C   UNL     1     -10.191   5.816   7.480  0.00  0.00    +0.000 C 
BRANCH  67  68
ATOM     68  C   UNL     1     -10.917   4.688   6.690  0.00  0.00    +0.000 C 
BRANCH  68  69
ATOM     69  O   UNL     1     -12.311   4.968   6.628  0.00  0.00    +0.000 OA
BRANCH  69  70
ATOM     70  C   UNL     1     -13.108   3.965   7.266  0.00  0.00    +0.000 C 
BRANCH  70  71
ATOM     71  C   UNL     1     -14.153   3.458   6.325  0.00  0.00    +0.000 C 
BRANCH  71  72
ATOM     72  O   UNL     1     -14.770   4.540   5.683  0.00  0.00    +0.000 OA
BRANCH  72  74
ATOM     73  O   UNL     1     -16.657   3.983   4.664  0.00  0.00    +0.000 OA
ATOM     74  C   UNL     1     -16.130   4.388   5.629  0.00  0.00    +0.000 C 
BRANCH  74  75
ATOM     75  C   UNL     1     -16.912   4.796   6.836  0.00  0.00    +0.000 C 
BRANCH  75  76
ATOM     76  C   UNL     1     -16.553   6.245   7.285  0.00  0.00    +0.000 C 
BRANCH  76  77
ATOM     77  C   UNL     1     -16.433   6.208   8.786  0.00  0.00    +0.000 C 
BRANCH  77  78
ATOM     78  C   UNL     1     -16.076   4.819   9.228  0.00  0.00    +0.000 C 
BRANCH  78  79
ATOM     79  C   UNL     1     -16.142   4.728  10.723  0.00  0.00    +0.000 C 
BRANCH  79  80
ATOM     80  C   UNL     1     -15.981   3.273  11.126  0.00  0.00    +0.000 C 
BRANCH  80  81
ATOM     81  C   UNL     1     -15.338   3.243  12.481  0.00  0.00    +0.000 C 
BRANCH  81  82
ATOM     82  C   UNL     1     -14.175   2.291  12.500  0.00  0.00    +0.000 C 
BRANCH  82  83
ATOM     83  C   UNL     1     -13.965   1.767  13.886  0.00  0.00    +0.000 C 
BRANCH  83  84
ATOM     84  C   UNL     1     -13.019   0.576  13.792  0.00  0.00    +0.000 C 
BRANCH  84  85
ATOM     85  C   UNL     1     -13.703  -0.625  14.356  0.00  0.00    +0.000 C 
BRANCH  85  86
ATOM     86  C   UNL     1     -14.409  -1.353  13.206  0.00  0.00    +0.000 C 
BRANCH  86  87
ATOM     87  C   UNL     1     -13.431  -1.535  12.058  0.00  0.00    +0.000 C 
BRANCH  87  88
ATOM     88  C   UNL     1     -14.145  -1.101  10.793  0.00  0.00    +0.000 C 
BRANCH  88  89
ATOM     89  C   UNL     1     -15.589  -0.795  11.150  0.00  0.00    +0.000 C 
BRANCH  89  90
ATOM     90  C   UNL     1     -16.301  -0.214   9.964  0.00  0.00    +0.000 C 
ATOM     91  C   UNL     1     -15.302   0.428   9.019  0.00  0.00    +0.000 C 
ENDBRANCH  89  90
ENDBRANCH  88  89
ENDBRANCH  87  88
ENDBRANCH  86  87
ENDBRANCH  85  86
ENDBRANCH  84  85
ENDBRANCH  83  84
ENDBRANCH  82  83
ENDBRANCH  81  82
ENDBRANCH  80  81
ENDBRANCH  79  80
ENDBRANCH  78  79
ENDBRANCH  77  78
ENDBRANCH  76  77
ENDBRANCH  75  76
ENDBRANCH  74  75
ENDBRANCH  72  74
ENDBRANCH  71  72
ENDBRANCH  70  71
ENDBRANCH  69  70
ENDBRANCH  68  69
ENDBRANCH  67  68
ENDBRANCH  66  67
ENDBRANCH  65  66
ENDBRANCH  64  65
ENDBRANCH  63  64
ENDBRANCH  62  63
ENDBRANCH  61  62
ENDBRANCH  60  61
ENDBRANCH  59  60
ENDBRANCH  58  59
ENDBRANCH  57  58
ENDBRANCH  56  57
ENDBRANCH   1  56
TORSDOF 81
BEGIN_RES LEU A  10
REMARK  2 active torsions:
REMARK  status: ('A' for Active; 'I' for Inactive)
REMARK    1  A    between atoms: CA   and  CB  
REMARK    2  A    between atoms: CB   and  CG  
ROOT
ATOM      1  CA  LEU A  10     -10.775  -4.871   5.898  1.00 25.14     0.177 C 
ENDROOT
BRANCH   1   2
ATOM      2  CB  LEU A  10     -12.191  -4.387   6.226  1.00 17.87     0.038 C 
BRANCH   2   3
ATOM      3  CG  LEU A  10     -12.345  -2.865   6.270  1.00 24.95    -0.020 C 
ATOM      4  CD2 LEU A  10     -13.007  -2.480   7.549  1.00 26.38     0.009 C 
ATOM      5  CD1 LEU A  10     -13.149  -2.367   5.081  1.00 28.12     0.009 C 
ENDBRANCH   2   3
ENDBRANCH   1   2
END_RES LEU A  10
BEGIN_RES CYS A  12
REMARK  2 active torsions:
REMARK  status: ('A' for Active; 'I' for Inactive)
REMARK    3  A    between atoms: CA   and  CB  
REMARK    4  A    between atoms: CB   and  SG  
ROOT
ATOM      6  CA  CYS A  12      -8.555   0.470   8.750  1.00 23.16     0.185 C 
ENDROOT
BRANCH   6   7
ATOM      7  CB  CYS A  12      -9.828   0.763   9.555  1.00 20.43     0.105 C 
BRANCH   7   8
ATOM      8  SG  CYS A  12     -11.367   0.905   8.595  1.00 24.64    -0.180 SA
ATOM      9  H04 CYS A  12     -11.228   0.260   7.429  1.00 24.64     0.101 HD
ENDBRANCH   7   8
ENDBRANCH   6   7
END_RES CYS A  12
BEGIN_RES GLN A  14
REMARK  3 active torsions:
REMARK  status: ('A' for Active; 'I' for Inactive)
REMARK    5  A    between atoms: CA   and  CB  
REMARK    6  A    between atoms: CB   and  CG  
REMARK    7  A    between atoms: CG   and  CD  
REMARK       I    between atoms: CD   and  NE2 
ROOT
ATOM     10  CA  GLN A  14      -4.645   5.402  11.377  1.00 10.43     0.177 C 
ENDROOT
BRANCH  10  11
ATOM     11  CB  GLN A  14      -5.541   5.549  12.608  1.00 14.45     0.044 C 
BRANCH  11  12
ATOM     12  CG  GLN A  14      -6.458   6.750  12.564  1.00 13.74     0.105 C 
BRANCH  12  13
ATOM     13  CD  GLN A  14      -5.850   7.965  13.223  1.00 16.29     0.215 C 
ATOM     14  NE2 GLN A  14      -6.252   8.230  14.447  1.00  8.57    -0.370 N 
ATOM     15  H06 GLN A  14      -5.879   9.030  14.938  1.00  8.57     0.159 HD
ATOM     16  H07 GLN A  14      -6.934   7.635  14.895  1.00  8.57     0.159 HD
ATOM     17  OE1 GLN A  14      -5.028   8.653  12.639  1.00 23.55    -0.274 OA
ENDBRANCH  12  13
ENDBRANCH  11  12
ENDBRANCH  10  11
END_RES GLN A  14
BEGIN_RES SER A  16
REMARK  2 active torsions:
REMARK  status: ('A' for Active; 'I' for Inactive)
REMARK    8  A    between atoms: CA   and  CB  
REMARK    9  A    between atoms: CB   and  OG  
ROOT
ATOM     18  CA  SER A  16      -1.305  10.019  14.282  1.00  2.34     0.200 C 
ENDROOT
BRANCH  18  19
ATOM     19  CB  SER A  16      -2.242   9.935  15.479  1.00  3.12     0.199 C 
BRANCH  19  20
ATOM     20  OG  SER A  16      -1.977   8.764  16.231  1.00  1.00    -0.398 OA
ATOM     21  H04 SER A  16      -2.635   8.673  16.924  1.00  1.00     0.209 HD
ENDBRANCH  19  20
ENDBRANCH  18  19
END_RES SER A  16
BEGIN_RES LEU A  32
REMARK  2 active torsions:
REMARK  status: ('A' for Active; 'I' for Inactive)
REMARK   10  A    between atoms: CA   and  CB  
REMARK   11  A    between atoms: CB   and  CG  
ROOT
ATOM     22  CA  LEU A  32     -10.272  -4.106   1.587  1.00 16.16     0.177 C 
ENDROOT
BRANCH  22  23
ATOM     23  CB  LEU A  32     -11.613  -3.858   0.880  1.00 12.35     0.038 C 
BRANCH  23  24
ATOM     24  CG  LEU A  32     -12.615  -5.004   1.131  1.00  9.77    -0.020 C 
ATOM     25  CD1 LEU A  32     -12.989  -5.063   2.593  1.00  4.35     0.009 C 
ATOM     26  CD2 LEU A  32     -13.855  -4.824   0.295  1.00 10.60     0.009 C 
ENDBRANCH  23  24
ENDBRANCH  22  23
END_RES LEU A  32
BEGIN_RES HIS A  38
REMARK  2 active torsions:
REMARK  status: ('A' for Active; 'I' for Inactive)
REMARK   12  A    between atoms: CA   and  CB  
REMARK   13  A    between atoms: CB   and  CG  
ROOT
ATOM     27  CA  HIS A  38     -10.959   4.941   1.621  1.00 16.94     0.182 C 
ENDROOT
BRANCH  27  28
ATOM     28  CB  HIS A  38     -11.810   4.840   2.881  1.00 15.47     0.095 C 
BRANCH  28  29
ATOM     29  CG  HIS A  38     -13.008   3.959   2.731  1.00 18.62     0.053 A 
ATOM     30  CD2 HIS A  38     -14.197   4.173   2.120  1.00 15.06     0.116 A 
ATOM     31  NE2 HIS A  38     -14.930   3.022   2.252  1.00 18.12    -0.359 N 
ATOM     32  CE1 HIS A  38     -14.220   2.133   2.920  1.00 14.78     0.207 A 
ATOM     33  H06 HIS A  38     -15.864   2.877   1.895  1.00 18.12     0.166 HD
ATOM     34  ND1 HIS A  38     -13.056   2.673   3.222  1.00 16.58    -0.247 NA
ENDBRANCH  28  29
ENDBRANCH  27  28
END_RES HIS A  38
BEGIN_RES TRP A  63
REMARK  2 active torsions:
REMARK  status: ('A' for Active; 'I' for Inactive)
REMARK   14  A    between atoms: CA   and  CB  
REMARK   15  A    between atoms: CB   and  CG  
ROOT
ATOM     35  CA  TRP A  63     -22.437   6.257   6.543  1.00 27.04     0.181 C 
ENDROOT
BRANCH  35  36
ATOM     36  CB  TRP A  63     -22.360   6.642   5.068  1.00 31.37     0.075 C 
BRANCH  36  37
ATOM     37  CG  TRP A  63     -20.969   6.582   4.474  1.00 34.37    -0.028 A 
ATOM     38  CD2 TRP A  63     -20.256   7.643   3.824  1.00 33.79    -0.002 A 
ATOM     39  CE3 TRP A  63     -20.571   8.961   3.486  1.00 32.99     0.014 A 
ATOM     40  CE2 TRP A  63     -18.974   7.148   3.499  1.00 35.84     0.042 A 
ATOM     41  CZ3 TRP A  63     -19.613   9.732   2.843  1.00 32.93     0.001 A 
ATOM     42  CH2 TRP A  63     -18.347   9.210   2.533  1.00 39.24     0.002 A 
ATOM     43  CZ2 TRP A  63     -18.010   7.922   2.853  1.00 37.99     0.030 A 
ATOM     44  NE1 TRP A  63     -18.918   5.851   3.930  1.00 37.98    -0.365 N 
ATOM     45  H06 TRP A  63     -18.122   5.235   3.837  1.00 37.98     0.165 HD
ATOM     46  CD1 TRP A  63     -20.118   5.521   4.511  1.00 38.16     0.096 A 
ENDBRANCH  36  37
ENDBRANCH  35  36
END_RES TRP A  63
BEGIN_RES LEU A  66
REMARK  2 active torsions:
REMARK  status: ('A' for Active; 'I' for Inactive)
REMARK   16  A    between atoms: CA   and  CB  
REMARK   17  A    between atoms: CB   and  CG  
ROOT
ATOM     47  CA  LEU A  66     -20.004   6.489  11.120  1.00 10.90     0.177 C 
ENDROOT
BRANCH  47  48
ATOM     48  CB  LEU A  66     -19.626   5.453  10.069  1.00 13.57     0.038 C 
BRANCH  48  49
ATOM     49  CG  LEU A  66     -19.996   3.998  10.356  1.00  8.73    -0.020 C 
ATOM     50  CD1 LEU A  66     -19.302   3.073   9.390  1.00 14.23     0.009 C 
ATOM     51  CD2 LEU A  66     -19.586   3.672  11.769  1.00  1.92     0.009 C 
ENDBRANCH  48  49
ENDBRANCH  47  48
END_RES LEU A  66
BEGIN_RES PHE A  70
REMARK  2 active torsions:
REMARK  status: ('A' for Active; 'I' for Inactive)
REMARK   18  A    between atoms: CA   and  CB  
REMARK   19  A    between atoms: CB   and  CG  
ROOT
ATOM     52  CA  PHE A  70     -14.974   9.434  13.165  1.00  8.78     0.180 C 
ENDROOT
BRANCH  52  53
ATOM     53  CB  PHE A  70     -14.707   9.132  11.681  1.00  6.33     0.073 C 
BRANCH  53  54
ATOM     54  CG  PHE A  70     -13.927   7.865  11.459  1.00  3.42    -0.056 A 
ATOM     55  CD1 PHE A  70     -13.561   7.464  10.183  1.00 13.88     0.007 A 
ATOM     56  CE1 PHE A  70     -12.873   6.254   9.979  1.00 12.71     0.001 A 
ATOM     57  CZ  PHE A  70     -12.548   5.440  11.064  1.00  4.21     0.000 A 
ATOM     58  CE2 PHE A  70     -12.905   5.831  12.341  1.00  2.83     0.001 A 
ATOM     59  CD2 PHE A  70     -13.593   7.041  12.535  1.00  1.00     0.007 A 
ENDBRANCH  53  54
ENDBRANCH  52  53
END_RES PHE A  70
BEGIN_RES TYR A  73
REMARK  3 active torsions:
REMARK  status: ('A' for Active; 'I' for Inactive)
REMARK   20  A    between atoms: CA   and  CB  
REMARK   21  A    between atoms: CB   and  CG  
REMARK   22  A    between atoms: CZ   and  OH  
ROOT
ATOM     60  CA  TYR A  73     -13.212  10.166  17.260  1.00 12.17     0.180 C 
ENDROOT
BRANCH  60  61
ATOM     61  CB  TYR A  73     -13.301   8.846  16.517  1.00 12.84     0.073 C 
BRANCH  61  62
ATOM     62  CG  TYR A  73     -11.983   8.170  16.368  1.00 15.89    -0.056 A 
ATOM     63  CD1 TYR A  73     -11.332   7.632  17.456  1.00 16.00     0.010 A 
ATOM     64  CE1 TYR A  73     -10.083   7.026  17.324  1.00 13.55     0.037 A 
ATOM     65  CZ  TYR A  73      -9.489   6.966  16.079  1.00 18.13     0.065 A 
ATOM     66  CE2 TYR A  73     -10.118   7.495  14.976  1.00 15.89     0.037 A 
ATOM     67  CD2 TYR A  73     -11.362   8.094  15.126  1.00 21.86     0.010 A 
BRANCH  65  68
ATOM     68  OH  TYR A  73      -8.262   6.369  15.924  1.00 12.12    -0.361 OA
ATOM     69  H08 TYR A  73      -7.698   6.597  16.667  1.00 12.12     0.217 HD
ENDBRANCH  65  68
ENDBRANCH  61  62
ENDBRANCH  60  61
END_RES TYR A  73
BEGIN_RES PHE A  77
REMARK  2 active torsions:
REMARK  status: ('A' for Active; 'I' for Inactive)
REMARK   23  A    between atoms: CA   and  CB  
REMARK   24  A    between atoms: CB   and  CG  
ROOT
ATOM     70  CA  PHE A  77      -8.400  10.581  20.110  1.00 17.17     0.180 C 
ENDROOT
BRANCH  70  71
ATOM     71  CB  PHE A  77      -8.228   9.750  18.851  1.00 10.44     0.073 C 
BRANCH  71  72
ATOM     72  CG  PHE A  77      -7.063   8.812  18.902  1.00  6.07    -0.056 A 
ATOM     73  CD2 PHE A  77      -5.986   8.987  18.064  1.00  9.61     0.007 A 
ATOM     74  CE2 PHE A  77      -4.900   8.121  18.105  1.00  1.00     0.001 A 
ATOM     75  CZ  PHE A  77      -4.890   7.067  19.003  1.00  1.92     0.000 A 
ATOM     76  CE1 PHE A  77      -5.959   6.879  19.850  1.00  9.25     0.001 A 
ATOM     77  CD1 PHE A  77      -7.044   7.753  19.796  1.00  9.63     0.007 A 
ENDBRANCH  71  72
ENDBRANCH  70  71
END_RES PHE A  77
BEGIN_RES LEU A  96
REMARK  2 active torsions:
REMARK  status: ('A' for Active; 'I' for Inactive)
REMARK   25  A    between atoms: CA   and  CB  
REMARK   26  A    between atoms: CB   and  CG  
ROOT
ATOM     78  CA  LEU A  96       0.717   6.481  17.359  1.00 16.08     0.177 C 
ENDROOT
BRANCH  78  79
ATOM     79  CB  LEU A  96      -0.370   7.101  18.230  1.00 18.83     0.038 C 
BRANCH  79  80
ATOM     80  CG  LEU A  96      -0.160   6.919  19.733  1.00 19.03    -0.020 C 
ATOM     81  CD1 LEU A  96       0.456   5.561  19.979  1.00 28.17     0.009 C 
ATOM     82  CD2 LEU A  96       0.781   7.975  20.266  1.00 22.01     0.009 C 
ENDBRANCH  79  80
ENDBRANCH  78  79
END_RES LEU A  96
BEGIN_RES VAL A  98
REMARK  1 active torsions:
REMARK  status: ('A' for Active; 'I' for Inactive)
REMARK   27  A    between atoms: CA   and  CB  
ROOT
ATOM     83  CA  VAL A  98      -3.928   2.082  14.897  1.00 19.83     0.180 C 
ENDROOT
BRANCH  83  84
ATOM     84  CB  VAL A  98      -5.203   2.807  15.281  1.00 17.87     0.009 C 
ATOM     85  CG2 VAL A  98      -4.917   4.268  15.513  1.00 29.90     0.012 C 
ATOM     86  CG1 VAL A  98      -5.793   2.171  16.522  1.00 14.79     0.012 C 
ENDBRANCH  83  84
END_RES VAL A  98
BEGIN_RES ASN A 112
REMARK  2 active torsions:
REMARK  status: ('A' for Active; 'I' for Inactive)
REMARK   28  A    between atoms: CA   and  CB  
REMARK   29  A    between atoms: CB   and  CG  
REMARK       I    between atoms: CG   and  ND2 
ROOT
ATOM     87  CA  ASN A 112     -11.790  -8.793  14.069  1.00 37.70     0.185 C 
ENDROOT
BRANCH  87  88
ATOM     88  CB  ASN A 112     -12.992  -7.945  14.465  1.00 26.24     0.137 C 
BRANCH  88  89
ATOM     89  CG  ASN A 112     -13.943  -8.663  15.396  1.00 21.77     0.217 C 
ATOM     90  ND2 ASN A 112     -13.656  -8.597  16.696  1.00  9.31    -0.370 N 
ATOM     91  H04 ASN A 112     -14.252  -9.058  17.368  1.00  9.31     0.159 HD
ATOM     92  H05 ASN A 112     -12.842  -8.086  17.008  1.00  9.31     0.159 HD
ATOM     93  OD1 ASN A 112     -14.923  -9.276  14.955  1.00 21.61    -0.274 OA
ENDBRANCH  88  89
ENDBRANCH  87  88
END_RES ASN A 112
BEGIN_RES PHE A 114
REMARK  2 active torsions:
REMARK  status: ('A' for Active; 'I' for Inactive)
REMARK   30  A    between atoms: CA   and  CB  
REMARK   31  A    between atoms: CB   and  CG  
ROOT
ATOM     94  CA  PHE A 114      -7.754  -3.619  17.012  1.00 26.06     0.180 C 
ENDROOT
BRANCH  94  95
ATOM     95  CB  PHE A 114      -8.890  -3.080  17.867  1.00 19.95     0.073 C 
BRANCH  95  96
ATOM     96  CG  PHE A 114      -9.204  -1.644  17.598  1.00 17.65    -0.056 A 
ATOM     97  CD1 PHE A 114     -10.521  -1.217  17.452  1.00 13.01     0.007 A 
ATOM     98  CE1 PHE A 114     -10.812   0.112  17.173  1.00  6.74     0.001 A 
ATOM     99  CZ  PHE A 114      -9.781   1.038  17.039  1.00  6.27     0.000 A 
ATOM    100  CE2 PHE A 114      -8.467   0.625  17.183  1.00 17.36     0.001 A 
ATOM    101  CD2 PHE A 114      -8.181  -0.716  17.462  1.00 18.39     0.007 A 
ENDBRANCH  95  96
ENDBRANCH  94  95
END_RES PHE A 114
BEGIN_RES VAL A 116
REMARK  1 active torsions:
REMARK  status: ('A' for Active; 'I' for Inactive)
REMARK   32  A    between atoms: CA   and  CB  
ROOT
ATOM    102  CA  VAL A 116      -2.467   0.283  18.565  1.00 13.48     0.180 C 
ENDROOT
BRANCH 102 103
ATOM    103  CB  VAL A 116      -3.101   1.238  19.599  1.00 20.86     0.009 C 
ATOM    104  CG1 VAL A 116      -3.061   2.672  19.063  1.00 25.01     0.012 C 
ATOM    105  CG2 VAL A 116      -4.510   0.809  19.936  1.00 25.34     0.012 C 
ENDBRANCH 102 103
END_RES VAL A 116
BEGIN_RES ILE A 123
REMARK  2 active torsions:
REMARK  status: ('A' for Active; 'I' for Inactive)
REMARK   33  A    between atoms: CA   and  CB  
REMARK   34  A    between atoms: CB   and  CG1 
ROOT
ATOM    106  CA  ILE A 123       1.557  -1.626  23.222  1.00 15.07     0.180 C 
ENDROOT
BRANCH 106 107
ATOM    107  CB  ILE A 123       1.697  -0.112  23.461  1.00 14.41     0.013 C 
ATOM    108  CG2 ILE A 123       3.058   0.193  24.062  1.00 18.35     0.012 C 
BRANCH 107 109
ATOM    109  CG1 ILE A 123       1.516   0.650  22.151  1.00 15.23     0.002 C 
ATOM    110  CD1 ILE A 123       0.153   1.283  22.001  1.00 14.67     0.005 C 
ENDBRANCH 107 109
ENDBRANCH 106 107
END_RES ILE A 123
BEGIN_RES LEU A 124
REMARK  2 active torsions:
REMARK  status: ('A' for Active; 'I' for Inactive)
REMARK   35  A    between atoms: CA   and  CB  
REMARK   36  A    between atoms: CB   and  CG  
ROOT
ATOM    111  CA  LEU A 124      -2.057  -2.686  23.524  1.00 11.86     0.177 C 
ENDROOT
BRANCH 111 112
ATOM    112  CB  LEU A 124      -2.698  -1.652  24.429  1.00 14.60     0.038 C 
BRANCH 112 113
ATOM    113  CG  LEU A 124      -2.644  -0.255  23.829  1.00 16.19    -0.020 C 
ATOM    114  CD1 LEU A 124      -4.076   0.202  23.492  1.00 22.07     0.009 C 
ATOM    115  CD2 LEU A 124      -1.968   0.682  24.798  1.00  9.12     0.009 C 
ENDBRANCH 112 113
ENDBRANCH 111 112
END_RES LEU A 124
BEGIN_RES PHE A 126
REMARK  2 active torsions:
REMARK  status: ('A' for Active; 'I' for Inactive)
REMARK   37  A    between atoms: CA   and  CB  
REMARK   38  A    between atoms: CB   and  CG  
ROOT
ATOM    116  CA  PHE A 126      -8.784  -4.792  22.233  1.00 23.15     0.180 C 
ENDROOT
BRANCH 116 117
ATOM    117  CB  PHE A 126      -9.823  -4.011  21.461  1.00 20.65     0.073 C 
BRANCH 117 118
ATOM    118  CG  PHE A 126     -10.946  -3.537  22.298  1.00 23.65    -0.056 A 
ATOM    119  CD2 PHE A 126     -10.748  -2.560  23.258  1.00 36.63     0.007 A 
ATOM    120  CE2 PHE A 126     -11.814  -2.111  24.049  1.00 36.27     0.001 A 
ATOM    121  CZ  PHE A 126     -13.080  -2.648  23.873  1.00 18.06     0.000 A 
ATOM    122  CE1 PHE A 126     -13.282  -3.621  22.915  1.00  5.50     0.001 A 
ATOM    123  CD1 PHE A 126     -12.217  -4.060  22.130  1.00 15.29     0.007 A 
ENDBRANCH 117 118
ENDBRANCH 116 117
END_RES PHE A 126
BEGIN_RES TRP A 131
REMARK  2 active torsions:
REMARK  status: ('A' for Active; 'I' for Inactive)
REMARK   39  A    between atoms: CA   and  CB  
REMARK   40  A    between atoms: CB   and  CG  
ROOT
ATOM    124  CA  TRP A 131      -8.096  -3.335  26.542  1.00 14.52     0.181 C 
ENDROOT
BRANCH 124 125
ATOM    125  CB  TRP A 131      -7.651  -1.877  26.607  1.00 13.06     0.075 C 
BRANCH 125 126
ATOM    126  CG  TRP A 131      -8.051  -1.051  25.404  1.00 16.97    -0.028 A 
ATOM    127  CD2 TRP A 131      -9.119  -0.102  25.339  1.00 11.34    -0.002 A 
ATOM    128  CE2 TRP A 131      -9.129   0.435  24.037  1.00  5.87     0.042 A 
ATOM    129  CE3 TRP A 131     -10.071   0.344  26.262  1.00  3.80     0.014 A 
ATOM    130  CZ2 TRP A 131     -10.053   1.400  23.634  1.00  1.35     0.030 A 
ATOM    131  NE1 TRP A 131      -8.114  -0.161  23.339  1.00 13.90    -0.365 N 
ATOM    132  CH2 TRP A 131     -10.975   1.821  24.560  1.00  1.00     0.002 A 
ATOM    133  CZ3 TRP A 131     -10.991   1.299  25.867  1.00  1.00     0.001 A 
ATOM    134  CD1 TRP A 131      -7.470  -1.052  24.166  1.00 17.22     0.096 A 
ATOM    135  H07 TRP A 131      -7.877   0.024  22.375  1.00 13.90     0.165 HD
ENDBRANCH 125 126
ENDBRANCH 124 125
END_RES TRP A 131
BEGIN_RES LEU A 148
REMARK  2 active torsions:
REMARK  status: ('A' for Active; 'I' for Inactive)
REMARK   41  A    between atoms: CA   and  CB  
REMARK   42  A    between atoms: CB   and  CG  
ROOT
ATOM    136  CA  LEU A 148      -9.018   3.259  29.295  1.00 16.99     0.177 C 
ENDROOT
BRANCH 136 137
ATOM    137  CB  LEU A 148      -8.166   2.574  28.236  1.00  6.39     0.038 C 
BRANCH 137 138
ATOM    138  CG  LEU A 148      -7.295   3.378  27.292  1.00  1.00    -0.020 C 
ATOM    139  CD2 LEU A 148      -7.963   3.513  25.955  1.00  1.00     0.009 C 
ATOM    140  CD1 LEU A 148      -5.962   2.667  27.153  1.00  2.71     0.009 C 
ENDBRANCH 137 138
ENDBRANCH 136 137
END_RES LEU A 148
BEGIN_RES THR A 154
REMARK  2 active torsions:
REMARK  status: ('A' for Active; 'I' for Inactive)
REMARK   43  A    between atoms: CA   and  CB  
REMARK   44  A    between atoms: CB   and  OG1 
ROOT
ATOM    141  CA  THR A 154     -15.990   3.959  24.426  1.00 20.45     0.205 C 
ENDROOT
BRANCH 141 142
ATOM    142  CB  THR A 154     -14.777   4.829  24.694  1.00 16.79     0.146 C 
ATOM    143  CG2 THR A 154     -13.640   4.441  23.768  1.00 20.24     0.042 C 
BRANCH 142 144
ATOM    144  OG1 THR A 154     -15.125   6.198  24.452  1.00 18.84    -0.393 OA
ATOM    145  H06 THR A 154     -14.443   6.770  24.810  1.00 18.84     0.210 HD
ENDBRANCH 142 144
ENDBRANCH 141 142
END_RES THR A 154
BEGIN_RES VAL A 158
REMARK  1 active torsions:
REMARK  status: ('A' for Active; 'I' for Inactive)
REMARK   45  A    between atoms: CA   and  CB  
ROOT
ATOM    146  CA  VAL A 158     -15.487  -0.189  19.892  1.00 15.49     0.180 C 
ENDROOT
BRANCH 146 147
ATOM    147  CB  VAL A 158     -14.291  -0.273  20.822  1.00  6.52     0.009 C 
ATOM    148  CG1 VAL A 158     -13.214  -1.157  20.237  1.00  1.00     0.012 C 
ATOM    149  CG2 VAL A 158     -13.769   1.110  21.059  1.00  5.99     0.012 C 
ENDBRANCH 146 147
END_RES VAL A 158
BEGIN_RES LEU A 161
REMARK  2 active torsions:
REMARK  status: ('A' for Active; 'I' for Inactive)
REMARK   46  A    between atoms: CA   and  CB  
REMARK   47  A    between atoms: CB   and  CG  
ROOT
ATOM    150  CA  LEU A 161     -18.031  -1.858  15.935  1.00 13.31     0.177 C 
ENDROOT
BRANCH 150 151
ATOM    151  CB  LEU A 161     -17.046  -0.706  16.001  1.00 14.13     0.038 C 
BRANCH 151 152
ATOM    152  CG  LEU A 161     -17.546   0.640  15.491  1.00 19.39    -0.020 C 
ATOM    153  CD2 LEU A 161     -17.488   0.681  13.983  1.00 27.75     0.009 C 
ATOM    154  CD1 LEU A 161     -16.686   1.730  16.070  1.00 18.59     0.009 C 
ENDBRANCH 151 152
ENDBRANCH 150 151
END_RES LEU A 161
BEGIN_RES GLN A 168
REMARK  3 active torsions:
REMARK  status: ('A' for Active; 'I' for Inactive)
REMARK   48  A    between atoms: CA   and  CB  
REMARK   49  A    between atoms: CB   and  CG  
REMARK   50  A    between atoms: CG   and  CD  
REMARK       I    between atoms: CD   and  NE2 
ROOT
ATOM    155  CA  GLN A 168     -22.035  -6.020   8.155  1.00 30.94     0.177 C 
ENDROOT
BRANCH 155 156
ATOM    156  CB  GLN A 168     -23.054  -5.218   8.946  1.00 41.76     0.044 C 
BRANCH 156 157
ATOM    157  CG  GLN A 168     -24.433  -5.820   8.978  1.00 61.20     0.105 C 
BRANCH 157 158
ATOM    158  CD  GLN A 168     -25.464  -4.903   8.350  1.00 75.49     0.215 C 
ATOM    159  NE2 GLN A 168     -25.037  -4.134   7.346  1.00 85.00    -0.370 N 
ATOM    160  H06 GLN A 168     -25.677  -3.500   6.889  1.00 85.00     0.159 HD
ATOM    161  H07 GLN A 168     -24.074  -4.186   7.045  1.00 85.00     0.159 HD
ATOM    162  OE1 GLN A 168     -26.633  -4.878   8.762  1.00 73.64    -0.274 OA
ENDBRANCH 157 158
ENDBRANCH 156 157
ENDBRANCH 155 156
END_RES GLN A 168
ENDMDL
MODEL 2
REMARK VINA RESULT:      -7.0      1.571      2.835
REMARK  Name = human_CD1d_tween80_pred.rank_0
REMARK  81 active torsions:
REMARK  status: ('A' for Active; 'I' for Inactive)
REMARK    1  A    between atoms: C_1  and  C_3
REMARK    2  A    between atoms: C_3  and  O_4
REMARK    3  A    between atoms: O_4  and  C_5
REMARK    4  A    between atoms: C_5  and  C_7
REMARK    5  A    between atoms: O_6  and  C_7
REMARK    6  A    between atoms: O_6  and  C_9
REMARK    7  A    between atoms: O_8  and  C_11
REMARK    8  A    between atoms: O_8  and  C_13
REMARK    9  A    between atoms: C_9  and  C_11
REMARK   10  A    between atoms: O_10  and  C_15
REMARK   11  A    between atoms: O_10  and  C_17
REMARK   12  A    between atoms: O_12  and  C_19
REMARK   13  A    between atoms: O_12  and  C_21
REMARK   14  A    between atoms: C_13  and  C_15
REMARK   15  A    between atoms: O_14  and  C_23
REMARK   16  A    between atoms: O_14  and  C_25
REMARK   17  A    between atoms: O_16  and  C_27
REMARK   18  A    between atoms: O_16  and  C_29
REMARK   19  A    between atoms: C_17  and  C_19
REMARK   20  A    between atoms: O_18  and  C_31
REMARK   21  A    between atoms: O_18  and  C_33
REMARK   22  A    between atoms: O_20  and  C_35
REMARK   23  A    between atoms: O_20  and  C_37
REMARK   24  A    between atoms: C_21  and  C_23
REMARK   25  A    between atoms: C_21  and  C_67
REMARK   26  A    between atoms: O_22  and  C_39
REMARK   27  A    between atoms: O_22  and  C_41
REMARK   28  A    between atoms: O_24  and  C_43
REMARK   29  A    between atoms: O_24  and  C_45
REMARK   30  A    between atoms: C_25  and  C_27
REMARK   31  A    between atoms: O_28  and  C_69
REMARK   32  A    between atoms: O_28  and  C_70
REMARK   33  A    between atoms: C_29  and  C_31
REMARK   34  A    between atoms: O_30  and  C_71
REMARK   35  A    between atoms: O_30  and  C_72
REMARK   36  A    between atoms: O_32  and  C_73
REMARK   37  A    between atoms: O_32  and  C_74
REMARK   38  A    between atoms: C_33  and  C_35
REMARK   39  A    between atoms: O_34  and  C_75
REMARK   40  A    between atoms: O_34  and  C_76
REMARK   41  A    between atoms: O_36  and  C_77
REMARK   42  A    between atoms: O_36  and  C_78
REMARK   43  A    between atoms: C_37  and  C_39
REMARK   44  A    between atoms: O_40  and  C_80
REMARK   45  A    between atoms: O_40  and  C_81
REMARK   46  A    between atoms: C_41  and  C_43
REMARK   47  A    between atoms: O_42  and  C_82
REMARK   48  A    between atoms: O_42  and  C_83
REMARK   49  A    between atoms: O_44  and  C_84
REMARK   50  A    between atoms: O_44  and  C_85
REMARK   51  A    between atoms: C_45  and  C_47
REMARK   52  A    between atoms: O_46  and  C_86
REMARK   53  A    between atoms: O_46  and  C_87
REMARK   54  A    between atoms: C_47  and  C_49
REMARK   55  A    between atoms: O_48  and  C_88
REMARK   56  A    between atoms: O_48  and  C_89
REMARK   57  A    between atoms: C_49  and  C_51
REMARK   58  A    between atoms: C_51  and  C_53
REMARK   59  A    between atoms: C_53  and  C_54
REMARK   60  A    between atoms: C_54  and  C_55
REMARK   61  A    between atoms: C_55  and  C_56
REMARK   62  A    between atoms: C_56  and  C_57
REMARK   63  A    between atoms: C_57  and  C_58
REMARK   64  A    between atoms: C_58  and  C_59
REMARK   65  A    between atoms: C_59  and  C_60
REMARK   66  A    between atoms: C_60  and  C_61
REMARK   67  A    between atoms: C_61  and  C_62
REMARK   68  A    between atoms: C_62  and  C_63
REMARK   69  A    between atoms: C_63  and  C_64
REMARK   70  A    between atoms: C_64  and  C_65
REMARK   71  A    between atoms: C_67  and  C_68
REMARK   72  A    between atoms: C_70  and  C_71
REMARK   73  A    between atoms: C_72  and  C_73
REMARK   74  A    between atoms: C_74  and  C_75
REMARK   75  A    between atoms: C_76  and  C_77
REMARK   76  A    between atoms: C_78  and  C_79
REMARK   77  A    between atoms: C_81  and  C_82
REMARK   78  A    between atoms: C_83  and  C_84
REMARK   79  A    between atoms: C_85  and  C_86
REMARK   80  A    between atoms: C_87  and  C_88
REMARK   81  A    between atoms: C_89  and  C_90
REMARK                            x       y       z     vdW  Elec       q    Type
REMARK                         _______ _______ _______ _____ _____    ______ ____
ROOT
ATOM      1  C   UNL     1     -12.366   4.336  18.602  0.00  0.00    +0.000 C 
ENDROOT
BRANCH   1   2
ATOM      2  C   UNL     1     -11.627   3.327  19.710  0.00  0.00    +0.000 C 
BRANCH   2   4
ATOM      3  O   UNL     1      -9.402   2.564  20.250  0.00  0.00    +0.000 OA
ATOM      4  C   UNL     1     -10.175   3.644  19.862  0.00  0.00    +0.000 C 
ATOM      5  C   UNL     1      -9.874   4.550  21.087  0.00  0.00    +0.000 C 
ATOM      6  C   UNL     1      -8.353   4.270  21.259  0.00  0.00    +0.000 C 
ATOM      7  C   UNL     1      -8.180   2.887  20.791  0.00  0.00    +0.000 C 
BRANCH   6   8
ATOM      8  O   UNL     1      -8.069   4.291  22.649  0.00  0.00    +0.000 OA
BRANCH   8   9
ATOM      9  C   UNL     1      -7.503   5.531  23.134  0.00  0.00    +0.000 C 
BRANCH   9  10
ATOM     10  C   UNL     1      -6.192   5.239  23.816  0.00  0.00    +0.000 C 
BRANCH  10  11
ATOM     11  O   UNL     1      -5.394   4.428  22.974  0.00  0.00    +0.000 OA
BRANCH  11  12
ATOM     12  C   UNL     1      -4.057   4.890  22.928  0.00  0.00    +0.000 C 
BRANCH  12  13
ATOM     13  C   UNL     1      -3.060   3.770  22.752  0.00  0.00    +0.000 C 
BRANCH  13  14
ATOM     14  O   UNL     1      -1.934   4.082  23.580  0.00  0.00    +0.000 OA
BRANCH  14  15
ATOM     15  C   UNL     1      -2.288   4.337  24.899  0.00  0.00    +0.000 C 
BRANCH  15  16
ATOM     16  C   UNL     1      -1.010   4.460  25.771  0.00  0.00    +0.000 C 
BRANCH  16  17
ATOM     17  O   UNL     1      -1.116   5.641  26.476  0.00  0.00    +0.000 OA
BRANCH  17  18
ATOM     18  C   UNL     1       0.157   6.268  26.715  0.00  0.00    +0.000 C 
BRANCH  18  19
ATOM     19  C   UNL     1       0.777   6.550  25.347  0.00  0.00    +0.000 C 
BRANCH  19  20
ATOM     20  O   UNL     1       0.598   7.866  24.992  0.00  0.00    +0.000 OA
BRANCH  20  21
ATOM     21  C   UNL     1       0.316   7.999  23.625  0.00  0.00    +0.000 C 
BRANCH  21  23
ATOM     22  O   UNL     1      -2.003   8.004  24.162  0.00  0.00    +0.000 OA
ATOM     23  C   UNL     1      -1.020   7.395  23.296  0.00  0.00    +0.000 C 
ENDBRANCH  21  23
ENDBRANCH  20  21
ENDBRANCH  19  20
ENDBRANCH  18  19
ENDBRANCH  17  18
ENDBRANCH  16  17
ENDBRANCH  15  16
ENDBRANCH  14  15
ENDBRANCH  13  14
ENDBRANCH  12  13
ENDBRANCH  11  12
ENDBRANCH  10  11
ENDBRANCH   9  10
ENDBRANCH   8   9
ENDBRANCH   6   8
BRANCH   5  24
ATOM     24  O   UNL     1     -10.105   5.903  20.767  0.00  0.00    +0.000 OA
BRANCH  24  25
ATOM     25  C   UNL     1     -10.801   6.612  21.777  0.00  0.00    +0.000 C 
BRANCH  25  26
ATOM     26  C   UNL     1     -10.400   8.071  21.832  0.00  0.00    +0.000 C 
BRANCH  26  27
ATOM     27  O   UNL     1     -11.562   8.841  22.054  0.00  0.00    +0.000 OA
BRANCH  27  28
ATOM     28  C   UNL     1     -12.456   8.246  22.981  0.00  0.00    +0.000 C 
BRANCH  28  29
ATOM     29  C   UNL     1     -13.629   9.143  23.312  0.00  0.00    +0.000 C 
BRANCH  29  30
ATOM     30  O   UNL     1     -14.013   8.965  24.659  0.00  0.00    +0.000 OA
BRANCH  30  31
ATOM     31  C   UNL     1     -15.235   9.630  25.003  0.00  0.00    +0.000 C 
BRANCH  31  32
ATOM     32  C   UNL     1     -15.193  10.073  26.463  0.00  0.00    +0.000 C 
BRANCH  32  33
ATOM     33  O   UNL     1     -16.057   9.305  27.277  0.00  0.00    +0.000 OA
BRANCH  33  34
ATOM     34  C   UNL     1     -17.002   8.564  26.540  0.00  0.00    +0.000 C 
BRANCH  34  35
ATOM     35  C   UNL     1     -18.383   8.560  27.231  0.00  0.00    +0.000 C 
BRANCH  35  36
ATOM     36  O   UNL     1     -18.229   9.028  28.544  0.00  0.00    +0.000 OA
BRANCH  36  37
ATOM     37  C   UNL     1     -18.025   7.929  29.416  0.00  0.00    +0.000 C 
BRANCH  37  39
ATOM     38  O   UNL     1     -18.862   5.696  29.659  0.00  0.00    +0.000 OA
ATOM     39  C   UNL     1     -19.246   7.058  29.466  0.00  0.00    +0.000 C 
ENDBRANCH  37  39
ENDBRANCH  36  37
ENDBRANCH  35  36
ENDBRANCH  34  35
ENDBRANCH  33  34
ENDBRANCH  32  33
ENDBRANCH  31  32
ENDBRANCH  30  31
ENDBRANCH  29  30
ENDBRANCH  28  29
ENDBRANCH  27  28
ENDBRANCH  26  27
ENDBRANCH  25  26
ENDBRANCH  24  25
ENDBRANCH   5  24
ENDBRANCH   2   4
ENDBRANCH   1   2
BRANCH   1  40
ATOM     40  O   UNL     1     -13.710   4.558  19.052  0.00  0.00    +0.000 OA
BRANCH  40  41
ATOM     41  C   UNL     1     -13.726   5.070  20.372  0.00  0.00    +0.000 C 
BRANCH  41  42
ATOM     42  C   UNL     1     -14.618   6.310  20.475  0.00  0.00    +0.000 C 
BRANCH  42  43
ATOM     43  O   UNL     1     -14.737   6.889  19.226  0.00  0.00    +0.000 OA
BRANCH  43  44
ATOM     44  C   UNL     1     -15.695   7.945  19.186  0.00  0.00    +0.000 C 
BRANCH  44  45
ATOM     45  C   UNL     1     -16.419   8.015  20.520  0.00  0.00    +0.000 C 
BRANCH  45  46
ATOM     46  O   UNL     1     -16.341   9.313  21.019  0.00  0.00    +0.000 OA
BRANCH  46  47
ATOM     47  C   UNL     1     -17.279   9.531  22.027  0.00  0.00    +0.000 C 
BRANCH  47  48
ATOM     48  C   UNL     1     -17.918  10.906  21.829  0.00  0.00    +0.000 C 
BRANCH  48  49
ATOM     49  O   UNL     1     -18.941  10.795  20.870  0.00  0.00    +0.000 OA
BRANCH  49  50
ATOM     50  C   UNL     1     -20.210  11.194  21.337  0.00  0.00    +0.000 C 
BRANCH  50  51
ATOM     51  C   UNL     1     -21.156  11.239  20.152  0.00  0.00    +0.000 C 
BRANCH  51  52
ATOM     52  O   UNL     1     -21.431   9.873  19.786  0.00  0.00    +0.000 OA
BRANCH  52  53
ATOM     53  C   UNL     1     -21.820   9.740  18.416  0.00  0.00    +0.000 C 
BRANCH  53  54
ATOM     54  C   UNL     1     -20.656   9.447  17.538  0.00  0.00    +0.000 C 
ATOM     55  O   UNL     1     -19.763   8.599  18.236  0.00  0.00    +0.000 OA
ENDBRANCH  53  54
ENDBRANCH  52  53
ENDBRANCH  51  52
ENDBRANCH  50  51
ENDBRANCH  49  50
ENDBRANCH  48  49
ENDBRANCH  47  48
ENDBRANCH  46  47
ENDBRANCH  45  46
ENDBRANCH  44  45
ENDBRANCH  43  44
ENDBRANCH  42  43
ENDBRANCH  41  42
ENDBRANCH  40  41
ENDBRANCH   1  40
BRANCH   1  56
ATOM     56  C   UNL     1     -12.325   3.639  17.277  0.00  0.00    +0.000 C 
BRANCH  56  57
ATOM     57  O   UNL     1     -11.216   4.102  16.628  0.00  0.00    +0.000 OA
BRANCH  57  58
ATOM     58  C   UNL     1     -11.345   3.811  15.206  0.00  0.00    +0.000 C 
BRANCH  58  59
ATOM     59  C   UNL     1      -9.973   3.671  14.581  0.00  0.00    +0.000 C 
BRANCH  59  60
ATOM     60  O   UNL     1      -9.933   2.482  13.830  0.00  0.00    +0.000 OA
BRANCH  60  61
ATOM     61  C   UNL     1      -9.992   2.738  12.449  0.00  0.00    +0.000 C 
BRANCH  61  62
ATOM     62  C   UNL     1      -9.215   4.034  12.184  0.00  0.00    +0.000 C 
BRANCH  62  63
ATOM     63  O   UNL     1      -8.642   3.963  10.865  0.00  0.00    +0.000 OA
BRANCH  63  64
ATOM     64  C   UNL     1      -9.146   5.003  10.019  0.00  0.00    +0.000 C 
BRANCH  64  65
ATOM     65  C   UNL     1      -9.424   4.464   8.628  0.00  0.00    +0.000 C 
BRANCH  65  66
ATOM     66  O   UNL     1      -9.423   5.572   7.719  0.00  0.00    +0.000 OA
BRANCH  66  67
ATOM     67  C   UNL     1     -10.754   5.892   7.251  0.00  0.00    +0.000 C 
BRANCH  67  68
ATOM     68  C   UNL     1     -11.342   4.589   6.632  0.00  0.00    +0.000 C 
BRANCH  68  69
ATOM     69  O   UNL     1     -12.574   4.270   7.270  0.00  0.00    +0.000 OA
BRANCH  69  70
ATOM     70  C   UNL     1     -13.555   3.766   6.359  0.00  0.00    +0.000 C 
BRANCH  70  71
ATOM     71  C   UNL     1     -14.522   4.845   5.989  0.00  0.00    +0.000 C 
BRANCH  71  72
ATOM     72  O   UNL     1     -14.740   5.678   7.095  0.00  0.00    +0.000 OA
BRANCH  72  74
ATOM     73  O   UNL     1     -16.413   7.010   6.518  0.00  0.00    +0.000 OA
ATOM     74  C   UNL     1     -16.040   6.103   7.159  0.00  0.00    +0.000 C 
BRANCH  74  75
ATOM     75  C   UNL     1     -16.947   5.388   8.107  0.00  0.00    +0.000 C 
BRANCH  75  76
ATOM     76  C   UNL     1     -16.192   4.266   8.883  0.00  0.00    +0.000 C 
BRANCH  76  77
ATOM     77  C   UNL     1     -16.712   2.956   8.351  0.00  0.00    +0.000 C 
BRANCH  77  78
ATOM     78  C   UNL     1     -16.580   1.897   9.405  0.00  0.00    +0.000 C 
BRANCH  78  79
ATOM     79  C   UNL     1     -17.626   0.842   9.201  0.00  0.00    +0.000 C 
BRANCH  79  80
ATOM     80  C   UNL     1     -17.202  -0.410   9.951  0.00  0.00    +0.000 C 
BRANCH  80  81
ATOM     81  C   UNL     1     -15.728  -0.590   9.742  0.00  0.00    +0.000 C 
BRANCH  81  82
ATOM     82  C   UNL     1     -15.050  -0.985  11.023  0.00  0.00    +0.000 C 
BRANCH  82  83
ATOM     83  C   UNL     1     -13.582  -1.157  10.794  0.00  0.00    +0.000 C 
BRANCH  83  84
ATOM     84  C   UNL     1     -12.886  -1.046  12.145  0.00  0.00    +0.000 C 
BRANCH  84  85
ATOM     85  C   UNL     1     -13.785  -0.320  13.089  0.00  0.00    +0.000 C 
BRANCH  85  86
ATOM     86  C   UNL     1     -13.124   1.019  13.439  0.00  0.00    +0.000 C 
BRANCH  86  87
ATOM     87  C   UNL     1     -14.071   2.150  13.076  0.00  0.00    +0.000 C 
BRANCH  87  88
ATOM     88  C   UNL     1     -14.597   2.725  14.376  0.00  0.00    +0.000 C 
BRANCH  88  89
ATOM     89  C   UNL     1     -15.803   3.592  14.053  0.00  0.00    +0.000 C 
BRANCH  89  90
ATOM     90  C   UNL     1     -15.890   3.822  12.574  0.00  0.00    +0.000 C 
ATOM     91  C   UNL     1     -16.496   5.185  12.292  0.00  0.00    +0.000 C 
ENDBRANCH  89  90
ENDBRANCH  88  89
ENDBRANCH  87  88
ENDBRANCH  86  87
ENDBRANCH  85  86
ENDBRANCH  84  85
ENDBRANCH  83  84
ENDBRANCH  82  83
ENDBRANCH  81  82
ENDBRANCH  80  81
ENDBRANCH  79  80
ENDBRANCH  78  79
ENDBRANCH  77  78
ENDBRANCH  76  77
ENDBRANCH  75  76
ENDBRANCH  74  75
ENDBRANCH  72  74
ENDBRANCH  71  72
ENDBRANCH  70  71
ENDBRANCH  69  70
ENDBRANCH  68  69
ENDBRANCH  67  68
ENDBRANCH  66  67
ENDBRANCH  65  66
ENDBRANCH  64  65
ENDBRANCH  63  64
ENDBRANCH  62  63
ENDBRANCH  61  62
ENDBRANCH  60  61
ENDBRANCH  59  60
ENDBRANCH  58  59
ENDBRANCH  57  58
ENDBRANCH  56  57
ENDBRANCH   1  56
TORSDOF 81
BEGIN_RES LEU A  10
REMARK  2 active torsions:
REMARK  status: ('A' for Active; 'I' for Inactive)
REMARK    1  A    between atoms: CA   and  CB  
REMARK    2  A    between atoms: CB   and  CG  
ROOT
ATOM      1  CA  LEU A  10     -10.775  -4.871   5.898  1.00 25.14     0.177 C 
ENDROOT
BRANCH   1   2
ATOM      2  CB  LEU A  10     -12.191  -4.387   6.226  1.00 17.87     0.038 C 
BRANCH   2   3
ATOM      3  CG  LEU A  10     -12.363  -2.867   6.196  1.00 24.95    -0.020 C 
ATOM      4  CD2 LEU A  10     -13.579  -2.499   6.977  1.00 26.38     0.009 C 
ATOM      5  CD1 LEU A  10     -12.472  -2.361   4.767  1.00 28.12     0.009 C 
ENDBRANCH   2   3
ENDBRANCH   1   2
END_RES LEU A  10
BEGIN_RES CYS A  12
REMARK  2 active torsions:
REMARK  status: ('A' for Active; 'I' for Inactive)
REMARK    3  A    between atoms: CA   and  CB  
REMARK    4  A    between atoms: CB   and  SG  
ROOT
ATOM      6  CA  CYS A  12      -8.555   0.470   8.750  1.00 23.16     0.185 C 
ENDROOT
BRANCH   6   7
ATOM      7  CB  CYS A  12      -9.828   0.763   9.555  1.00 20.43     0.105 C 
BRANCH   7   8
ATOM      8  SG  CYS A  12     -11.330   1.097   8.584  1.00 24.64    -0.180 SA
ATOM      9  H04 CYS A  12     -11.781   2.326   8.866  1.00 24.64     0.101 HD
ENDBRANCH   7   8
ENDBRANCH   6   7
END_RES CYS A  12
BEGIN_RES GLN A  14
REMARK  3 active torsions:
REMARK  status: ('A' for Active; 'I' for Inactive)
REMARK    5  A    between atoms: CA   and  CB  
REMARK    6  A    between atoms: CB   and  CG  
REMARK    7  A    between atoms: CG   and  CD  
REMARK       I    between atoms: CD   and  NE2 
ROOT
ATOM     10  CA  GLN A  14      -4.645   5.402  11.377  1.00 10.43     0.177 C 
ENDROOT
BRANCH  10  11
ATOM     11  CB  GLN A  14      -5.541   5.549  12.608  1.00 14.45     0.044 C 
BRANCH  11  12
ATOM     12  CG  GLN A  14      -6.533   6.686  12.517  1.00 13.74     0.105 C 
BRANCH  12  13
ATOM     13  CD  GLN A  14      -6.002   7.964  13.122  1.00 16.29     0.215 C 
ATOM     14  NE2 GLN A  14      -6.401   8.243  14.344  1.00  8.57    -0.370 N 
ATOM     15  H06 GLN A  14      -6.078   9.084  14.801  1.00  8.57     0.159 HD
ATOM     16  H07 GLN A  14      -7.030   7.617  14.826  1.00  8.57     0.159 HD
ATOM     17  OE1 GLN A  14      -5.242   8.688  12.499  1.00 23.55    -0.274 OA
ENDBRANCH  12  13
ENDBRANCH  11  12
ENDBRANCH  10  11
END_RES GLN A  14
BEGIN_RES SER A  16
REMARK  2 active torsions:
REMARK  status: ('A' for Active; 'I' for Inactive)
REMARK    8  A    between atoms: CA   and  CB  
REMARK    9  A    between atoms: CB   and  OG  
ROOT
ATOM     18  CA  SER A  16      -1.305  10.019  14.282  1.00  2.34     0.200 C 
ENDROOT
BRANCH  18  19
ATOM     19  CB  SER A  16      -2.242   9.935  15.479  1.00  3.12     0.199 C 
BRANCH  19  20
ATOM     20  OG  SER A  16      -1.965   8.773  16.241  1.00  1.00    -0.398 OA
ATOM     21  H04 SER A  16      -1.059   8.497  16.085  1.00  1.00     0.209 HD
ENDBRANCH  19  20
ENDBRANCH  18  19
END_RES SER A  16
BEGIN_RES LEU A  32
REMARK  2 active torsions:
REMARK  status: ('A' for Active; 'I' for Inactive)
REMARK   10  A    between atoms: CA   and  CB  
REMARK   11  A    between atoms: CB   and  CG  
ROOT
ATOM     22  CA  LEU A  32     -10.272  -4.106   1.587  1.00 16.16     0.177 C 
ENDROOT
BRANCH  22  23
ATOM     23  CB  LEU A  32     -11.613  -3.858   0.880  1.00 12.35     0.038 C 
BRANCH  23  24
ATOM     24  CG  LEU A  32     -12.589  -5.037   1.070  1.00  9.77    -0.020 C 
ATOM     25  CD1 LEU A  32     -13.038  -5.121   2.510  1.00  4.35     0.009 C 
ATOM     26  CD2 LEU A  32     -13.789  -4.891   0.171  1.00 10.60     0.009 C 
ENDBRANCH  23  24
ENDBRANCH  22  23
END_RES LEU A  32
BEGIN_RES HIS A  38
REMARK  2 active torsions:
REMARK  status: ('A' for Active; 'I' for Inactive)
REMARK   12  A    between atoms: CA   and  CB  
REMARK   13  A    between atoms: CB   and  CG  
ROOT
ATOM     27  CA  HIS A  38     -10.959   4.941   1.621  1.00 16.94     0.182 C 
ENDROOT
BRANCH  27  28
ATOM     28  CB  HIS A  38     -11.810   4.840   2.881  1.00 15.47     0.095 C 
BRANCH  28  29
ATOM     29  CG  HIS A  38     -13.007   3.958   2.732  1.00 18.62     0.053 A 
ATOM     30  CD2 HIS A  38     -14.195   4.169   2.117  1.00 15.06     0.116 A 
ATOM     31  NE2 HIS A  38     -14.928   3.017   2.252  1.00 18.12    -0.359 N 
ATOM     32  CE1 HIS A  38     -14.218   2.131   2.924  1.00 14.78     0.207 A 
ATOM     33  H06 HIS A  38     -15.861   2.871   1.894  1.00 18.12     0.166 HD
ATOM     34  ND1 HIS A  38     -13.055   2.673   3.227  1.00 16.58    -0.247 NA
ENDBRANCH  28  29
ENDBRANCH  27  28
END_RES HIS A  38
BEGIN_RES TRP A  63
REMARK  2 active torsions:
REMARK  status: ('A' for Active; 'I' for Inactive)
REMARK   14  A    between atoms: CA   and  CB  
REMARK   15  A    between atoms: CB   and  CG  
ROOT
ATOM     35  CA  TRP A  63     -22.437   6.257   6.543  1.00 27.04     0.181 C 
ENDROOT
BRANCH  35  36
ATOM     36  CB  TRP A  63     -22.360   6.642   5.068  1.00 31.37     0.075 C 
BRANCH  36  37
ATOM     37  CG  TRP A  63     -20.958   6.669   4.497  1.00 34.37    -0.028 A 
ATOM     38  CD2 TRP A  63     -19.941   5.668   4.645  1.00 33.79    -0.002 A 
ATOM     39  CE3 TRP A  63     -19.860   4.460   5.342  1.00 32.99     0.014 A 
ATOM     40  CE2 TRP A  63     -18.828   6.088   3.884  1.00 35.84     0.042 A 
ATOM     41  CZ3 TRP A  63     -18.689   3.720   5.260  1.00 32.93     0.001 A 
ATOM     42  CH2 TRP A  63     -17.599   4.166   4.496  1.00 39.24     0.002 A 
ATOM     43  CZ2 TRP A  63     -17.650   5.345   3.801  1.00 37.99     0.030 A 
ATOM     44  NE1 TRP A  63     -19.157   7.284   3.308  1.00 37.98    -0.365 N 
ATOM     45  H06 TRP A  63     -18.558   7.829   2.704  1.00 37.98     0.165 HD
ATOM     46  CD1 TRP A  63     -20.434   7.624   3.683  1.00 38.16     0.096 A 
ENDBRANCH  36  37
ENDBRANCH  35  36
END_RES TRP A  63
BEGIN_RES LEU A  66
REMARK  2 active torsions:
REMARK  status: ('A' for Active; 'I' for Inactive)
REMARK   16  A    between atoms: CA   and  CB  
REMARK   17  A    between atoms: CB   and  CG  
ROOT
ATOM     47  CA  LEU A  66     -20.004   6.489  11.120  1.00 10.90     0.177 C 
ENDROOT
BRANCH  47  48
ATOM     48  CB  LEU A  66     -19.626   5.453  10.069  1.00 13.57     0.038 C 
BRANCH  48  49
ATOM     49  CG  LEU A  66     -19.510   4.000  10.529  1.00  8.73    -0.020 C 
ATOM     50  CD1 LEU A  66     -19.820   3.882  11.998  1.00 14.23     0.009 C 
ATOM     51  CD2 LEU A  66     -20.477   3.167   9.727  1.00  1.92     0.009 C 
ENDBRANCH  48  49
ENDBRANCH  47  48
END_RES LEU A  66
BEGIN_RES PHE A  70
REMARK  2 active torsions:
REMARK  status: ('A' for Active; 'I' for Inactive)
REMARK   18  A    between atoms: CA   and  CB  
REMARK   19  A    between atoms: CB   and  CG  
ROOT
ATOM     52  CA  PHE A  70     -14.974   9.434  13.165  1.00  8.78     0.180 C 
ENDROOT
BRANCH  52  53
ATOM     53  CB  PHE A  70     -14.707   9.132  11.681  1.00  6.33     0.073 C 
BRANCH  53  54
ATOM     54  CG  PHE A  70     -14.007   7.820  11.454  1.00  3.42    -0.056 A 
ATOM     55  CD1 PHE A  70     -13.491   7.091  12.515  1.00 13.88     0.007 A 
ATOM     56  CE1 PHE A  70     -12.796   5.890  12.292  1.00 12.71     0.001 A 
ATOM     57  CZ  PHE A  70     -12.618   5.413  10.993  1.00  4.21     0.000 A 
ATOM     58  CE2 PHE A  70     -13.130   6.129   9.927  1.00  2.83     0.001 A 
ATOM     59  CD2 PHE A  70     -13.823   7.329  10.161  1.00  1.00     0.007 A 
ENDBRANCH  53  54
ENDBRANCH  52  53
END_RES PHE A  70
BEGIN_RES TYR A  73
REMARK  3 active torsions:
REMARK  status: ('A' for Active; 'I' for Inactive)
REMARK   20  A    between atoms: CA   and  CB  
REMARK   21  A    between atoms: CB   and  CG  
REMARK   22  A    between atoms: CZ   and  OH  
ROOT
ATOM     60  CA  TYR A  73     -13.212  10.166  17.260  1.00 12.17     0.180 C 
ENDROOT
BRANCH  60  61
ATOM     61  CB  TYR A  73     -13.301   8.846  16.517  1.00 12.84     0.073 C 
BRANCH  61  62
ATOM     62  CG  TYR A  73     -11.986   8.160  16.387  1.00 15.89    -0.056 A 
ATOM     63  CD1 TYR A  73     -11.342   7.643  17.489  1.00 16.00     0.010 A 
ATOM     64  CE1 TYR A  73     -10.096   7.027  17.373  1.00 13.55     0.037 A 
ATOM     65  CZ  TYR A  73      -9.498   6.936  16.132  1.00 18.13     0.065 A 
ATOM     66  CE2 TYR A  73     -10.121   7.443  15.016  1.00 15.89     0.037 A 
ATOM     67  CD2 TYR A  73     -11.363   8.053  15.149  1.00 21.86     0.010 A 
BRANCH  65  68
ATOM     68  OH  TYR A  73      -8.274   6.328  15.994  1.00 12.12    -0.361 OA
ATOM     69  H08 TYR A  73      -7.742   6.819  15.364  1.00 12.12     0.217 HD
ENDBRANCH  65  68
ENDBRANCH  61  62
ENDBRANCH  60  61
END_RES TYR A  73
BEGIN_RES PHE A  77
REMARK  2 active torsions:
REMARK  status: ('A' for Active; 'I' for Inactive)
REMARK   23  A    between atoms: CA   and  CB  
REMARK   24  A    between atoms: CB   and  CG  
ROOT
ATOM     70  CA  PHE A  77      -8.400  10.581  20.110  1.00 17.17     0.180 C 
ENDROOT
BRANCH  70  71
ATOM     71  CB  PHE A  77      -8.228   9.750  18.851  1.00 10.44     0.073 C 
BRANCH  71  72
ATOM     72  CG  PHE A  77      -7.124   8.743  18.939  1.00  6.07    -0.056 A 
ATOM     73  CD2 PHE A  77      -6.090   8.757  18.031  1.00  9.61     0.007 A 
ATOM     74  CE2 PHE A  77      -5.060   7.827  18.106  1.00  1.00     0.001 A 
ATOM     75  CZ  PHE A  77      -5.064   6.871  19.108  1.00  1.92     0.000 A 
ATOM     76  CE1 PHE A  77      -6.090   6.844  20.025  1.00  9.25     0.001 A 
ATOM     77  CD1 PHE A  77      -7.118   7.782  19.937  1.00  9.63     0.007 A 
ENDBRANCH  71  72
ENDBRANCH  70  71
END_RES PHE A  77
BEGIN_RES LEU A  96
REMARK  2 active torsions:
REMARK  status: ('A' for Active; 'I' for Inactive)
REMARK   25  A    between atoms: CA   and  CB  
REMARK   26  A    between atoms: CB   and  CG  
ROOT
ATOM     78  CA  LEU A  96       0.717   6.481  17.359  1.00 16.08     0.177 C 
ENDROOT
BRANCH  78  79
ATOM     79  CB  LEU A  96      -0.370   7.101  18.230  1.00 18.83     0.038 C 
BRANCH  79  80
ATOM     80  CG  LEU A  96      -0.075   7.074  19.729  1.00 19.03    -0.020 C 
ATOM     81  CD1 LEU A  96       0.523   5.732  20.084  1.00 28.17     0.009 C 
ATOM     82  CD2 LEU A  96       0.920   8.152  20.091  1.00 22.01     0.009 C 
ENDBRANCH  79  80
ENDBRANCH  78  79
END_RES LEU A  96
BEGIN_RES VAL A  98
REMARK  1 active torsions:
REMARK  status: ('A' for Active; 'I' for Inactive)
REMARK   27  A    between atoms: CA   and  CB  
ROOT
ATOM     83  CA  VAL A  98      -3.928   2.082  14.897  1.00 19.83     0.180 C 
ENDROOT
BRANCH  83  84
ATOM     84  CB  VAL A  98      -5.203   2.807  15.281  1.00 17.87     0.009 C 
ATOM     85  CG2 VAL A  98      -5.296   2.931  16.780  1.00 29.90     0.012 C 
ATOM     86  CG1 VAL A  98      -6.397   2.058  14.729  1.00 14.79     0.012 C 
ENDBRANCH  83  84
END_RES VAL A  98
BEGIN_RES ASN A 112
REMARK  2 active torsions:
REMARK  status: ('A' for Active; 'I' for Inactive)
REMARK   28  A    between atoms: CA   and  CB  
REMARK   29  A    between atoms: CB   and  CG  
REMARK       I    between atoms: CG   and  ND2 
ROOT
ATOM     87  CA  ASN A 112     -11.790  -8.793  14.069  1.00 37.70     0.185 C 
ENDROOT
BRANCH  87  88
ATOM     88  CB  ASN A 112     -12.992  -7.945  14.465  1.00 26.24     0.137 C 
BRANCH  88  89
ATOM     89  CG  ASN A 112     -13.820  -8.569  15.566  1.00 21.77     0.217 C 
ATOM     90  ND2 ASN A 112     -14.973  -9.123  15.192  1.00  9.31    -0.370 N 
ATOM     91  H04 ASN A 112     -15.573  -9.555  15.881  1.00  9.31     0.159 HD
ATOM     92  H05 ASN A 112     -15.247  -9.112  14.220  1.00  9.31     0.159 HD
ATOM     93  OD1 ASN A 112     -13.435  -8.550  16.741  1.00 21.61    -0.274 OA
ENDBRANCH  88  89
ENDBRANCH  87  88
END_RES ASN A 112
BEGIN_RES PHE A 114
REMARK  2 active torsions:
REMARK  status: ('A' for Active; 'I' for Inactive)
REMARK   30  A    between atoms: CA   and  CB  
REMARK   31  A    between atoms: CB   and  CG  
ROOT
ATOM     94  CA  PHE A 114      -7.754  -3.619  17.012  1.00 26.06     0.180 C 
ENDROOT
BRANCH  94  95
ATOM     95  CB  PHE A 114      -8.890  -3.080  17.867  1.00 19.95     0.073 C 
BRANCH  95  96
ATOM     96  CG  PHE A 114      -9.186  -1.637  17.617  1.00 17.65    -0.056 A 
ATOM     97  CD1 PHE A 114      -8.157  -0.703  17.527  1.00 13.01     0.007 A 
ATOM     98  CE1 PHE A 114      -8.433   0.642  17.324  1.00  6.74     0.001 A 
ATOM     99  CZ  PHE A 114      -9.751   1.074  17.205  1.00  6.27     0.000 A 
ATOM    100  CE2 PHE A 114     -10.783   0.154  17.291  1.00 17.36     0.001 A 
ATOM    101  CD2 PHE A 114     -10.498  -1.200  17.497  1.00 18.39     0.007 A 
ENDBRANCH  95  96
ENDBRANCH  94  95
END_RES PHE A 114
BEGIN_RES VAL A 116
REMARK  1 active torsions:
REMARK  status: ('A' for Active; 'I' for Inactive)
REMARK   32  A    between atoms: CA   and  CB  
ROOT
ATOM    102  CA  VAL A 116      -2.467   0.283  18.565  1.00 13.48     0.180 C 
ENDROOT
BRANCH 102 103
ATOM    103  CB  VAL A 116      -3.101   1.238  19.599  1.00 20.86     0.009 C 
ATOM    104  CG1 VAL A 116      -2.784   2.687  19.219  1.00 25.01     0.012 C 
ATOM    105  CG2 VAL A 116      -4.590   1.004  19.706  1.00 25.34     0.012 C 
ENDBRANCH 102 103
END_RES VAL A 116
BEGIN_RES ILE A 123
REMARK  2 active torsions:
REMARK  status: ('A' for Active; 'I' for Inactive)
REMARK   33  A    between atoms: CA   and  CB  
REMARK   34  A    between atoms: CB   and  CG1 
ROOT
ATOM    106  CA  ILE A 123       1.557  -1.626  23.222  1.00 15.07     0.180 C 
ENDROOT
BRANCH 106 107
ATOM    107  CB  ILE A 123       1.697  -0.112  23.461  1.00 14.41     0.013 C 
ATOM    108  CG2 ILE A 123       3.105   0.209  23.930  1.00 18.35     0.012 C 
BRANCH 107 109
ATOM    109  CG1 ILE A 123       1.378   0.658  22.182  1.00 15.23     0.002 C 
ATOM    110  CD1 ILE A 123       0.246   1.645  22.335  1.00 14.67     0.005 C 
ENDBRANCH 107 109
ENDBRANCH 106 107
END_RES ILE A 123
BEGIN_RES LEU A 124
REMARK  2 active torsions:
REMARK  status: ('A' for Active; 'I' for Inactive)
REMARK   35  A    between atoms: CA   and  CB  
REMARK   36  A    between atoms: CB   and  CG  
ROOT
ATOM    111  CA  LEU A 124      -2.057  -2.686  23.524  1.00 11.86     0.177 C 
ENDROOT
BRANCH 111 112
ATOM    112  CB  LEU A 124      -2.698  -1.652  24.429  1.00 14.60     0.038 C 
BRANCH 112 113
ATOM    113  CG  LEU A 124      -2.609  -0.249  23.847  1.00 16.19    -0.020 C 
ATOM    114  CD1 LEU A 124      -4.009   0.190  23.379  1.00 22.07     0.009 C 
ATOM    115  CD2 LEU A 124      -2.042   0.689  24.883  1.00  9.12     0.009 C 
ENDBRANCH 112 113
ENDBRANCH 111 112
END_RES LEU A 124
BEGIN_RES PHE A 126
REMARK  2 active torsions:
REMARK  status: ('A' for Active; 'I' for Inactive)
REMARK   37  A    between atoms: CA   and  CB  
REMARK   38  A    between atoms: CB   and  CG  
ROOT
ATOM    116  CA  PHE A 126      -8.784  -4.792  22.233  1.00 23.15     0.180 C 
ENDROOT
BRANCH 116 117
ATOM    117  CB  PHE A 126      -9.823  -4.011  21.461  1.00 20.65     0.073 C 
BRANCH 117 118
ATOM    118  CG  PHE A 126     -10.949  -3.542  22.297  1.00 23.65    -0.056 A 
ATOM    119  CD2 PHE A 126     -10.755  -2.566  23.258  1.00 36.63     0.007 A 
ATOM    120  CE2 PHE A 126     -11.824  -2.121  24.049  1.00 36.27     0.001 A 
ATOM    121  CZ  PHE A 126     -13.088  -2.662  23.870  1.00 18.06     0.000 A 
ATOM    122  CE1 PHE A 126     -13.286  -3.634  22.911  1.00  5.50     0.001 A 
ATOM    123  CD1 PHE A 126     -12.217  -4.069  22.126  1.00 15.29     0.007 A 
ENDBRANCH 117 118
ENDBRANCH 116 117
END_RES PHE A 126
BEGIN_RES TRP A 131
REMARK  2 active torsions:
REMARK  status: ('A' for Active; 'I' for Inactive)
REMARK   39  A    between atoms: CA   and  CB  
REMARK   40  A    between atoms: CB   and  CG  
ROOT
ATOM    124  CA  TRP A 131      -8.096  -3.335  26.542  1.00 14.52     0.181 C 
ENDROOT
BRANCH 124 125
ATOM    125  CB  TRP A 131      -7.651  -1.877  26.607  1.00 13.06     0.075 C 
BRANCH 125 126
ATOM    126  CG  TRP A 131      -8.041  -1.054  25.399  1.00 16.97    -0.028 A 
ATOM    127  CD2 TRP A 131      -9.128  -0.128  25.314  1.00 11.34    -0.002 A 
ATOM    128  CE2 TRP A 131      -9.119   0.415  24.015  1.00  5.87     0.042 A 
ATOM    129  CE3 TRP A 131     -10.110   0.294  26.217  1.00  3.80     0.014 A 
ATOM    130  CZ2 TRP A 131     -10.055   1.363  23.595  1.00  1.35     0.030 A 
ATOM    131  NE1 TRP A 131      -8.077  -0.155  23.337  1.00 13.90    -0.365 N 
ATOM    132  CH2 TRP A 131     -11.007   1.759  24.502  1.00  1.00     0.002 A 
ATOM    133  CZ3 TRP A 131     -11.041   1.231  25.806  1.00  1.00     0.001 A 
ATOM    134  CD1 TRP A 131      -7.432  -1.036  24.174  1.00 17.22     0.096 A 
ATOM    135  H07 TRP A 131      -7.821   0.040  22.380  1.00 13.90     0.165 HD
ENDBRANCH 125 126
ENDBRANCH 124 125
END_RES TRP A 131
BEGIN_RES LEU A 148
REMARK  2 active torsions:
REMARK  status: ('A' for Active; 'I' for Inactive)
REMARK   41  A    between atoms: CA   and  CB  
REMARK   42  A    between atoms: CB   and  CG  
ROOT
ATOM    136  CA  LEU A 148      -9.018   3.259  29.295  1.00 16.99     0.177 C 
ENDROOT
BRANCH 136 137
ATOM    137  CB  LEU A 148      -8.166   2.574  28.236  1.00  6.39     0.038 C 
BRANCH 137 138
ATOM    138  CG  LEU A 148      -7.577   3.356  27.080  1.00  1.00    -0.020 C 
ATOM    139  CD2 LEU A 148      -8.669   4.008  26.283  1.00  1.00     0.009 C 
ATOM    140  CD1 LEU A 148      -6.783   2.397  26.212  1.00  2.71     0.009 C 
ENDBRANCH 137 138
ENDBRANCH 136 137
END_RES LEU A 148
BEGIN_RES THR A 154
REMARK  2 active torsions:
REMARK  status: ('A' for Active; 'I' for Inactive)
REMARK   43  A    between atoms: CA   and  CB  
REMARK   44  A    between atoms: CB   and  OG1 
ROOT
ATOM    141  CA  THR A 154     -15.990   3.959  24.426  1.00 20.45     0.205 C 
ENDROOT
BRANCH 141 142
ATOM    142  CB  THR A 154     -14.777   4.829  24.694  1.00 16.79     0.146 C 
ATOM    143  CG2 THR A 154     -13.604   4.366  23.851  1.00 20.24     0.042 C 
BRANCH 142 144
ATOM    144  OG1 THR A 154     -15.091   6.183  24.346  1.00 18.84    -0.393 OA
ATOM    145  H06 THR A 154     -14.978   6.306  23.401  1.00 18.84     0.210 HD
ENDBRANCH 142 144
ENDBRANCH 141 142
END_RES THR A 154
BEGIN_RES VAL A 158
REMARK  1 active torsions:
REMARK  status: ('A' for Active; 'I' for Inactive)
REMARK   45  A    between atoms: CA   and  CB  
ROOT
ATOM    146  CA  VAL A 158     -15.487  -0.189  19.892  1.00 15.49     0.180 C 
ENDROOT
BRANCH 146 147
ATOM    147  CB  VAL A 158     -14.291  -0.273  20.822  1.00  6.52     0.009 C 
ATOM    148  CG1 VAL A 158     -13.205  -1.140  20.227  1.00  1.00     0.012 C 
ATOM    149  CG2 VAL A 158     -13.783   1.112  21.076  1.00  5.99     0.012 C 
ENDBRANCH 146 147
END_RES VAL A 158
BEGIN_RES LEU A 161
REMARK  2 active torsions:
REMARK  status: ('A' for Active; 'I' for Inactive)
REMARK   46  A    between atoms: CA   and  CB  
REMARK   47  A    between atoms: CB   and  CG  
ROOT
ATOM    150  CA  LEU A 161     -18.031  -1.858  15.935  1.00 13.31     0.177 C 
ENDROOT
BRANCH 150 151
ATOM    151  CB  LEU A 161     -17.046  -0.706  16.001  1.00 14.13     0.038 C 
BRANCH 151 152
ATOM    152  CG  LEU A 161     -17.419   0.546  15.217  1.00 19.39    -0.020 C 
ATOM    153  CD2 LEU A 161     -18.799   1.016  15.608  1.00 27.75     0.009 C 
ATOM    154  CD1 LEU A 161     -17.379   0.230  13.747  1.00 18.59     0.009 C 
ENDBRANCH 151 152
ENDBRANCH 150 151
END_RES LEU A 161
BEGIN_RES GLN A 168
REMARK  3 active torsions:
REMARK  status: ('A' for Active; 'I' for Inactive)
REMARK   48  A    between atoms: CA   and  CB  
REMARK   49  A    between atoms: CB   and  CG  
REMARK   50  A    between atoms: CG   and  CD  
REMARK       I    between atoms: CD   and  NE2 
ROOT
ATOM    155  CA  GLN A 168     -22.035  -6.020   8.155  1.00 30.94     0.177 C 
ENDROOT
BRANCH 155 156
ATOM    156  CB  GLN A 168     -23.054  -5.218   8.946  1.00 41.76     0.044 C 
BRANCH 156 157
ATOM    157  CG  GLN A 168     -24.420  -5.845   9.021  1.00 61.20     0.105 C 
BRANCH 157 158
ATOM    158  CD  GLN A 168     -24.939  -5.901  10.444  1.00 75.49     0.215 C 
ATOM    159  NE2 GLN A 168     -24.022  -5.822  11.410  1.00 85.00    -0.370 N 
ATOM    160  H06 GLN A 168     -24.306  -5.855  12.379  1.00 85.00     0.159 HD
ATOM    161  H07 GLN A 168     -23.045  -5.728  11.172  1.00 85.00     0.159 HD
ATOM    162  OE1 GLN A 168     -26.150  -6.020  10.678  1.00 73.64    -0.274 OA
ENDBRANCH 157 158
ENDBRANCH 156 157
ENDBRANCH 155 156
END_RES GLN A 168
ENDMDL
MODEL 3
REMARK VINA RESULT:      -7.0      1.957      3.582
REMARK  Name = human_CD1d_tween80_pred.rank_0
REMARK  81 active torsions:
REMARK  status: ('A' for Active; 'I' for Inactive)
REMARK    1  A    between atoms: C_1  and  C_3
REMARK    2  A    between atoms: C_3  and  O_4
REMARK    3  A    between atoms: O_4  and  C_5
REMARK    4  A    between atoms: C_5  and  C_7
REMARK    5  A    between atoms: O_6  and  C_7
REMARK    6  A    between atoms: O_6  and  C_9
REMARK    7  A    between atoms: O_8  and  C_11
REMARK    8  A    between atoms: O_8  and  C_13
REMARK    9  A    between atoms: C_9  and  C_11
REMARK   10  A    between atoms: O_10  and  C_15
REMARK   11  A    between atoms: O_10  and  C_17
REMARK   12  A    between atoms: O_12  and  C_19
REMARK   13  A    between atoms: O_12  and  C_21
REMARK   14  A    between atoms: C_13  and  C_15
REMARK   15  A    between atoms: O_14  and  C_23
REMARK   16  A    between atoms: O_14  and  C_25
REMARK   17  A    between atoms: O_16  and  C_27
REMARK   18  A    between atoms: O_16  and  C_29
REMARK   19  A    between atoms: C_17  and  C_19
REMARK   20  A    between atoms: O_18  and  C_31
REMARK   21  A    between atoms: O_18  and  C_33
REMARK   22  A    between atoms: O_20  and  C_35
REMARK   23  A    between atoms: O_20  and  C_37
REMARK   24  A    between atoms: C_21  and  C_23
REMARK   25  A    between atoms: C_21  and  C_67
REMARK   26  A    between atoms: O_22  and  C_39
REMARK   27  A    between atoms: O_22  and  C_41
REMARK   28  A    between atoms: O_24  and  C_43
REMARK   29  A    between atoms: O_24  and  C_45
REMARK   30  A    between atoms: C_25  and  C_27
REMARK   31  A    between atoms: O_28  and  C_69
REMARK   32  A    between atoms: O_28  and  C_70
REMARK   33  A    between atoms: C_29  and  C_31
REMARK   34  A    between atoms: O_30  and  C_71
REMARK   35  A    between atoms: O_30  and  C_72
REMARK   36  A    between atoms: O_32  and  C_73
REMARK   37  A    between atoms: O_32  and  C_74
REMARK   38  A    between atoms: C_33  and  C_35
REMARK   39  A    between atoms: O_34  and  C_75
REMARK   40  A    between atoms: O_34  and  C_76
REMARK   41  A    between atoms: O_36  and  C_77
REMARK   42  A    between atoms: O_36  and  C_78
REMARK   43  A    between atoms: C_37  and  C_39
REMARK   44  A    between atoms: O_40  and  C_80
REMARK   45  A    between atoms: O_40  and  C_81
REMARK   46  A    between atoms: C_41  and  C_43
REMARK   47  A    between atoms: O_42  and  C_82
REMARK   48  A    between atoms: O_42  and  C_83
REMARK   49  A    between atoms: O_44  and  C_84
REMARK   50  A    between atoms: O_44  and  C_85
REMARK   51  A    between atoms: C_45  and  C_47
REMARK   52  A    between atoms: O_46  and  C_86
REMARK   53  A    between atoms: O_46  and  C_87
REMARK   54  A    between atoms: C_47  and  C_49
REMARK   55  A    between atoms: O_48  and  C_88
REMARK   56  A    between atoms: O_48  and  C_89
REMARK   57  A    between atoms: C_49  and  C_51
REMARK   58  A    between atoms: C_51  and  C_53
REMARK   59  A    between atoms: C_53  and  C_54
REMARK   60  A    between atoms: C_54  and  C_55
REMARK   61  A    between atoms: C_55  and  C_56
REMARK   62  A    between atoms: C_56  and  C_57
REMARK   63  A    between atoms: C_57  and  C_58
REMARK   64  A    between atoms: C_58  and  C_59
REMARK   65  A    between atoms: C_59  and  C_60
REMARK   66  A    between atoms: C_60  and  C_61
REMARK   67  A    between atoms: C_61  and  C_62
REMARK   68  A    between atoms: C_62  and  C_63
REMARK   69  A    between atoms: C_63  and  C_64
REMARK   70  A    between atoms: C_64  and  C_65
REMARK   71  A    between atoms: C_67  and  C_68
REMARK   72  A    between atoms: C_70  and  C_71
REMARK   73  A    between atoms: C_72  and  C_73
REMARK   74  A    between atoms: C_74  and  C_75
REMARK   75  A    between atoms: C_76  and  C_77
REMARK   76  A    between atoms: C_78  and  C_79
REMARK   77  A    between atoms: C_81  and  C_82
REMARK   78  A    between atoms: C_83  and  C_84
REMARK   79  A    between atoms: C_85  and  C_86
REMARK   80  A    between atoms: C_87  and  C_88
REMARK   81  A    between atoms: C_89  and  C_90
REMARK                            x       y       z     vdW  Elec       q    Type
REMARK                         _______ _______ _______ _____ _____    ______ ____
ROOT
ATOM      1  C   UNL     1     -12.996   4.388  18.835  0.00  0.00    +0.000 C 
ENDROOT
BRANCH   1   2
ATOM      2  C   UNL     1     -12.273   4.061  20.306  0.00  0.00    +0.000 C 
BRANCH   2   4
ATOM      3  O   UNL     1      -9.885   3.934  20.634  0.00  0.00    +0.000 OA
ATOM      4  C   UNL     1     -10.969   4.775  20.449  0.00  0.00    +0.000 C 
ATOM      5  C   UNL     1     -10.843   5.552  21.788  0.00  0.00    +0.000 C 
ATOM      6  C   UNL     1      -9.297   5.720  21.855  0.00  0.00    +0.000 C 
ATOM      7  C   UNL     1      -8.769   4.531  21.171  0.00  0.00    +0.000 C 
BRANCH   6   8
ATOM      8  O   UNL     1      -8.917   5.633  23.220  0.00  0.00    +0.000 OA
BRANCH   8   9
ATOM      9  C   UNL     1      -8.093   6.725  23.691  0.00  0.00    +0.000 C 
BRANCH   9  10
ATOM     10  C   UNL     1      -6.905   6.163  24.427  0.00  0.00    +0.000 C 
BRANCH  10  11
ATOM     11  O   UNL     1      -6.590   4.885  23.907  0.00  0.00    +0.000 OA
BRANCH  11  12
ATOM     12  C   UNL     1      -5.500   4.948  23.007  0.00  0.00    +0.000 C 
BRANCH  12  13
ATOM     13  C   UNL     1      -5.172   3.607  22.395  0.00  0.00    +0.000 C 
BRANCH  13  14
ATOM     14  O   UNL     1      -3.748   3.467  22.437  0.00  0.00    +0.000 OA
BRANCH  14  15
ATOM     15  C   UNL     1      -3.098   4.657  22.743  0.00  0.00    +0.000 C 
BRANCH  15  16
ATOM     16  C   UNL     1      -1.798   4.355  23.534  0.00  0.00    +0.000 C 
BRANCH  16  17
ATOM     17  O   UNL     1      -2.056   4.647  24.858  0.00  0.00    +0.000 OA
BRANCH  17  18
ATOM     18  C   UNL     1      -0.906   5.162  25.553  0.00  0.00    +0.000 C 
BRANCH  18  19
ATOM     19  C   UNL     1       0.302   4.930  24.647  0.00  0.00    +0.000 C 
BRANCH  19  20
ATOM     20  O   UNL     1       1.070   6.068  24.556  0.00  0.00    +0.000 OA
BRANCH  20  21
ATOM     21  C   UNL     1       0.447   7.163  25.172  0.00  0.00    +0.000 C 
BRANCH  21  23
ATOM     22  O   UNL     1       0.820   9.512  25.088  0.00  0.00    +0.000 OA
ATOM     23  C   UNL     1       0.481   8.368  24.275  0.00  0.00    +0.000 C 
ENDBRANCH  21  23
ENDBRANCH  20  21
ENDBRANCH  19  20
ENDBRANCH  18  19
ENDBRANCH  17  18
ENDBRANCH  16  17
ENDBRANCH  15  16
ENDBRANCH  14  15
ENDBRANCH  13  14
ENDBRANCH  12  13
ENDBRANCH  11  12
ENDBRANCH  10  11
ENDBRANCH   9  10
ENDBRANCH   8   9
ENDBRANCH   6   8
BRANCH   5  24
ATOM     24  O   UNL     1     -11.483   6.804  21.693  0.00  0.00    +0.000 OA
BRANCH  24  25
ATOM     25  C   UNL     1     -11.764   7.392  22.950  0.00  0.00    +0.000 C 
BRANCH  25  26
ATOM     26  C   UNL     1     -12.489   8.714  22.814  0.00  0.00    +0.000 C 
BRANCH  26  27
ATOM     27  O   UNL     1     -13.836   8.521  23.191  0.00  0.00    +0.000 OA
BRANCH  27  28
ATOM     28  C   UNL     1     -14.286   9.463  24.151  0.00  0.00    +0.000 C 
BRANCH  28  29
ATOM     29  C   UNL     1     -15.234  10.485  23.562  0.00  0.00    +0.000 C 
BRANCH  29  30
ATOM     30  O   UNL     1     -14.839  11.788  23.935  0.00  0.00    +0.000 OA
BRANCH  30  31
ATOM     31  C   UNL     1     -13.973  11.823  25.076  0.00  0.00    +0.000 C 
BRANCH  31  32
ATOM     32  C   UNL     1     -14.665  12.538  26.233  0.00  0.00    +0.000 C 
BRANCH  32  33
ATOM     33  O   UNL     1     -15.571  13.525  25.782  0.00  0.00    +0.000 OA
BRANCH  33  34
ATOM     34  C   UNL     1     -15.012  14.818  25.750  0.00  0.00    +0.000 C 
BRANCH  34  35
ATOM     35  C   UNL     1     -14.837  15.324  24.301  0.00  0.00    +0.000 C 
BRANCH  35  36
ATOM     36  O   UNL     1     -15.706  16.405  24.095  0.00  0.00    +0.000 OA
BRANCH  36  37
ATOM     37  C   UNL     1     -16.841  15.966  23.367  0.00  0.00    +0.000 C 
BRANCH  37  39
ATOM     38  O   UNL     1     -17.610  16.315  21.124  0.00  0.00    +0.000 OA
ATOM     39  C   UNL     1     -17.229  16.978  22.330  0.00  0.00    +0.000 C 
ENDBRANCH  37  39
ENDBRANCH  36  37
ENDBRANCH  35  36
ENDBRANCH  34  35
ENDBRANCH  33  34
ENDBRANCH  32  33
ENDBRANCH  31  32
ENDBRANCH  30  31
ENDBRANCH  29  30
ENDBRANCH  28  29
ENDBRANCH  27  28
ENDBRANCH  26  27
ENDBRANCH  25  26
ENDBRANCH  24  25
ENDBRANCH   5  24
ENDBRANCH   2   4
ENDBRANCH   1   2
BRANCH   1  40
ATOM     40  O   UNL     1     -14.414   4.277  19.019  0.00  0.00    +0.000 OA
BRANCH  40  41
ATOM     41  C   UNL     1     -14.793   4.696  20.317  0.00  0.00    +0.000 C 
BRANCH  41  42
ATOM     42  C   UNL     1     -15.766   5.877  20.257  0.00  0.00    +0.000 C 
BRANCH  42  43
ATOM     43  O   UNL     1     -15.343   6.764  19.285  0.00  0.00    +0.000 OA
BRANCH  43  44
ATOM     44  C   UNL     1     -14.632   7.881  19.816  0.00  0.00    +0.000 C 
BRANCH  44  45
ATOM     45  C   UNL     1     -15.615   8.992  20.142  0.00  0.00    +0.000 C 
BRANCH  45  46
ATOM     46  O   UNL     1     -16.432   9.224  19.038  0.00  0.00    +0.000 OA
BRANCH  46  47
ATOM     47  C   UNL     1     -17.776   9.281  19.400  0.00  0.00    +0.000 C 
BRANCH  47  48
ATOM     48  C   UNL     1     -18.507   8.075  18.806  0.00  0.00    +0.000 C 
BRANCH  48  49
ATOM     49  O   UNL     1     -19.647   8.531  18.120  0.00  0.00    +0.000 OA
BRANCH  49  50
ATOM     50  C   UNL     1     -20.319   9.589  18.764  0.00  0.00    +0.000 C 
BRANCH  50  51
ATOM     51  C   UNL     1     -21.763   9.584  18.300  0.00  0.00    +0.000 C 
BRANCH  51  52
ATOM     52  O   UNL     1     -22.042   8.254  17.824  0.00  0.00    +0.000 OA
BRANCH  52  53
ATOM     53  C   UNL     1     -23.247   8.188  17.055  0.00  0.00    +0.000 C 
BRANCH  53  54
ATOM     54  C   UNL     1     -23.597   9.506  16.462  0.00  0.00    +0.000 C 
ATOM     55  O   UNL     1     -23.268   9.484  15.084  0.00  0.00    +0.000 OA
ENDBRANCH  53  54
ENDBRANCH  52  53
ENDBRANCH  51  52
ENDBRANCH  50  51
ENDBRANCH  49  50
ENDBRANCH  48  49
ENDBRANCH  47  48
ENDBRANCH  46  47
ENDBRANCH  45  46
ENDBRANCH  44  45
ENDBRANCH  43  44
ENDBRANCH  42  43
ENDBRANCH  41  42
ENDBRANCH  40  41
ENDBRANCH   1  40
BRANCH   1  56
ATOM     56  C   UNL     1     -12.475   3.382  17.856  0.00  0.00    +0.000 C 
BRANCH  56  57
ATOM     57  O   UNL     1     -11.990   4.088  16.793  0.00  0.00    +0.000 OA
BRANCH  57  58
ATOM     58  C   UNL     1     -11.860   3.192  15.651  0.00  0.00    +0.000 C 
BRANCH  58  59
ATOM     59  C   UNL     1     -10.942   3.807  14.614  0.00  0.00    +0.000 C 
BRANCH  59  60
ATOM     60  O   UNL     1      -9.607   3.549  14.977  0.00  0.00    +0.000 OA
BRANCH  60  61
ATOM     61  C   UNL     1      -8.722   3.801  13.914  0.00  0.00    +0.000 C 
BRANCH  61  62
ATOM     62  C   UNL     1      -9.530   3.725  12.611  0.00  0.00    +0.000 C 
BRANCH  62  63
ATOM     63  O   UNL     1      -8.620   3.842  11.501  0.00  0.00    +0.000 OA
BRANCH  63  64
ATOM     64  C   UNL     1      -9.020   4.886  10.606  0.00  0.00    +0.000 C 
BRANCH  64  65
ATOM     65  C   UNL     1      -9.429   4.304   9.265  0.00  0.00    +0.000 C 
BRANCH  65  66
ATOM     66  O   UNL     1      -9.099   5.261   8.252  0.00  0.00    +0.000 OA
BRANCH  66  67
ATOM     67  C   UNL     1     -10.246   5.612   7.441  0.00  0.00    +0.000 C 
BRANCH  67  68
ATOM     68  C   UNL     1     -11.140   4.341   7.347  0.00  0.00    +0.000 C 
BRANCH  68  69
ATOM     69  O   UNL     1     -12.317   4.638   6.604  0.00  0.00    +0.000 OA
BRANCH  69  70
ATOM     70  C   UNL     1     -13.467   3.934   7.083  0.00  0.00    +0.000 C 
BRANCH  70  71
ATOM     71  C   UNL     1     -14.665   4.829   7.069  0.00  0.00    +0.000 C 
BRANCH  71  72
ATOM     72  O   UNL     1     -15.686   4.256   7.840  0.00  0.00    +0.000 OA
BRANCH  72  74
ATOM     73  O   UNL     1     -17.109   4.606   6.178  0.00  0.00    +0.000 OA
ATOM     74  C   UNL     1     -16.774   3.930   7.075  0.00  0.00    +0.000 C 
BRANCH  74  75
ATOM     75  C   UNL     1     -17.536   2.702   7.456  0.00  0.00    +0.000 C 
BRANCH  75  76
ATOM     76  C   UNL     1     -16.739   1.831   8.475  0.00  0.00    +0.000 C 
BRANCH  76  77
ATOM     77  C   UNL     1     -17.760   1.040   9.249  0.00  0.00    +0.000 C 
BRANCH  77  78
ATOM     78  C   UNL     1     -17.135  -0.224   9.762  0.00  0.00    +0.000 C 
BRANCH  78  79
ATOM     79  C   UNL     1     -15.670  -0.233   9.446  0.00  0.00    +0.000 C 
BRANCH  79  80
ATOM     80  C   UNL     1     -14.939  -0.961  10.562  0.00  0.00    +0.000 C 
BRANCH  80  81
ATOM     81  C   UNL     1     -15.817  -0.930  11.777  0.00  0.00    +0.000 C 
BRANCH  81  82
ATOM     82  C   UNL     1     -15.030  -1.261  13.014  0.00  0.00    +0.000 C 
BRANCH  82  83
ATOM     83  C   UNL     1     -13.607  -1.549  12.655  0.00  0.00    +0.000 C 
BRANCH  83  84
ATOM     84  C   UNL     1     -12.721  -0.826  13.661  0.00  0.00    +0.000 C 
BRANCH  84  85
ATOM     85  C   UNL     1     -13.036   0.632  13.618  0.00  0.00    +0.000 C 
BRANCH  85  86
ATOM     86  C   UNL     1     -12.421   1.215  12.340  0.00  0.00    +0.000 C 
BRANCH  86  87
ATOM     87  C   UNL     1     -13.447   2.099  11.653  0.00  0.00    +0.000 C 
BRANCH  87  88
ATOM     88  C   UNL     1     -14.416   2.568  12.720  0.00  0.00    +0.000 C 
BRANCH  88  89
ATOM     89  C   UNL     1     -15.784   2.723  12.076  0.00  0.00    +0.000 C 
BRANCH  89  90
ATOM     90  C   UNL     1     -15.877   4.046  11.376  0.00  0.00    +0.000 C 
ATOM     91  C   UNL     1     -16.417   5.101  12.324  0.00  0.00    +0.000 C 
ENDBRANCH  89  90
ENDBRANCH  88  89
ENDBRANCH  87  88
ENDBRANCH  86  87
ENDBRANCH  85  86
ENDBRANCH  84  85
ENDBRANCH  83  84
ENDBRANCH  82  83
ENDBRANCH  81  82
ENDBRANCH  80  81
ENDBRANCH  79  80
ENDBRANCH  78  79
ENDBRANCH  77  78
ENDBRANCH  76  77
ENDBRANCH  75  76
ENDBRANCH  74  75
ENDBRANCH  72  74
ENDBRANCH  71  72
ENDBRANCH  70  71
ENDBRANCH  69  70
ENDBRANCH  68  69
ENDBRANCH  67  68
ENDBRANCH  66  67
ENDBRANCH  65  66
ENDBRANCH  64  65
ENDBRANCH  63  64
ENDBRANCH  62  63
ENDBRANCH  61  62
ENDBRANCH  60  61
ENDBRANCH  59  60
ENDBRANCH  58  59
ENDBRANCH  57  58
ENDBRANCH  56  57
ENDBRANCH   1  56
TORSDOF 81
BEGIN_RES LEU A  10
REMARK  2 active torsions:
REMARK  status: ('A' for Active; 'I' for Inactive)
REMARK    1  A    between atoms: CA   and  CB  
REMARK    2  A    between atoms: CB   and  CG  
ROOT
ATOM      1  CA  LEU A  10     -10.775  -4.871   5.898  1.00 25.14     0.177 C 
ENDROOT
BRANCH   1   2
ATOM      2  CB  LEU A  10     -12.191  -4.387   6.226  1.00 17.87     0.038 C 
BRANCH   2   3
ATOM      3  CG  LEU A  10     -12.366  -2.867   6.185  1.00 24.95    -0.020 C 
ATOM      4  CD2 LEU A  10     -13.582  -2.497   6.965  1.00 26.38     0.009 C 
ATOM      5  CD1 LEU A  10     -12.476  -2.371   4.754  1.00 28.12     0.009 C 
ENDBRANCH   2   3
ENDBRANCH   1   2
END_RES LEU A  10
BEGIN_RES CYS A  12
REMARK  2 active torsions:
REMARK  status: ('A' for Active; 'I' for Inactive)
REMARK    3  A    between atoms: CA   and  CB  
REMARK    4  A    between atoms: CB   and  SG  
ROOT
ATOM      6  CA  CYS A  12      -8.555   0.470   8.750  1.00 23.16     0.185 C 
ENDROOT
BRANCH   6   7
ATOM      7  CB  CYS A  12      -9.828   0.763   9.555  1.00 20.43     0.105 C 
BRANCH   7   8
ATOM      8  SG  CYS A  12     -11.389   0.738   8.621  1.00 24.64    -0.180 SA
ATOM      9  H04 CYS A  12     -12.198  -0.202   9.126  1.00 24.64     0.101 HD
ENDBRANCH   7   8
ENDBRANCH   6   7
END_RES CYS A  12
BEGIN_RES GLN A  14
REMARK  3 active torsions:
REMARK  status: ('A' for Active; 'I' for Inactive)
REMARK    5  A    between atoms: CA   and  CB  
REMARK    6  A    between atoms: CB   and  CG  
REMARK    7  A    between atoms: CG   and  CD  
REMARK       I    between atoms: CD   and  NE2 
ROOT
ATOM     10  CA  GLN A  14      -4.645   5.402  11.377  1.00 10.43     0.177 C 
ENDROOT
BRANCH  10  11
ATOM     11  CB  GLN A  14      -5.541   5.549  12.608  1.00 14.45     0.044 C 
BRANCH  11  12
ATOM     12  CG  GLN A  14      -6.510   6.706  12.531  1.00 13.74     0.105 C 
BRANCH  12  13
ATOM     13  CD  GLN A  14      -6.410   7.623  13.726  1.00 16.29     0.215 C 
ATOM     14  NE2 GLN A  14      -6.083   8.873  13.480  1.00  8.57    -0.370 N 
ATOM     15  H06 GLN A  14      -6.003   9.533  14.240  1.00  8.57     0.159 HD
ATOM     16  H07 GLN A  14      -5.913   9.173  12.531  1.00  8.57     0.159 HD
ATOM     17  OE1 GLN A  14      -6.628   7.213  14.855  1.00 23.55    -0.274 OA
ENDBRANCH  12  13
ENDBRANCH  11  12
ENDBRANCH  10  11
END_RES GLN A  14
BEGIN_RES SER A  16
REMARK  2 active torsions:
REMARK  status: ('A' for Active; 'I' for Inactive)
REMARK    8  A    between atoms: CA   and  CB  
REMARK    9  A    between atoms: CB   and  OG  
ROOT
ATOM     18  CA  SER A  16      -1.305  10.019  14.282  1.00  2.34     0.200 C 
ENDROOT
BRANCH  18  19
ATOM     19  CB  SER A  16      -2.242   9.935  15.479  1.00  3.12     0.199 C 
BRANCH  19  20
ATOM     20  OG  SER A  16      -3.458   9.308  15.110  1.00  1.00    -0.398 OA
ATOM     21  H04 SER A  16      -3.353   8.885  14.255  1.00  1.00     0.209 HD
ENDBRANCH  19  20
ENDBRANCH  18  19
END_RES SER A  16
BEGIN_RES LEU A  32
REMARK  2 active torsions:
REMARK  status: ('A' for Active; 'I' for Inactive)
REMARK   10  A    between atoms: CA   and  CB  
REMARK   11  A    between atoms: CB   and  CG  
ROOT
ATOM     22  CA  LEU A  32     -10.272  -4.106   1.587  1.00 16.16     0.177 C 
ENDROOT
BRANCH  22  23
ATOM     23  CB  LEU A  32     -11.613  -3.858   0.880  1.00 12.35     0.038 C 
BRANCH  23  24
ATOM     24  CG  LEU A  32     -12.587  -5.039   1.066  1.00  9.77    -0.020 C 
ATOM     25  CD1 LEU A  32     -13.040  -5.125   2.504  1.00  4.35     0.009 C 
ATOM     26  CD2 LEU A  32     -13.785  -4.895   0.164  1.00 10.60     0.009 C 
ENDBRANCH  23  24
ENDBRANCH  22  23
END_RES LEU A  32
BEGIN_RES HIS A  38
REMARK  2 active torsions:
REMARK  status: ('A' for Active; 'I' for Inactive)
REMARK   12  A    between atoms: CA   and  CB  
REMARK   13  A    between atoms: CB   and  CG  
ROOT
ATOM     27  CA  HIS A  38     -10.959   4.941   1.621  1.00 16.94     0.182 C 
ENDROOT
BRANCH  27  28
ATOM     28  CB  HIS A  38     -11.810   4.840   2.881  1.00 15.47     0.095 C 
BRANCH  28  29
ATOM     29  CG  HIS A  38     -13.273   5.029   2.638  1.00 18.62     0.053 A 
ATOM     30  CD2 HIS A  38     -13.949   5.391   1.522  1.00 15.06     0.116 A 
ATOM     31  NE2 HIS A  38     -15.283   5.383   1.840  1.00 18.12    -0.359 N 
ATOM     32  CE1 HIS A  38     -15.423   5.031   3.103  1.00 14.78     0.207 A 
ATOM     33  H06 HIS A  38     -16.037   5.611   1.208  1.00 18.12     0.166 HD
ATOM     34  ND1 HIS A  38     -14.225   4.812   3.609  1.00 16.58    -0.247 NA
ENDBRANCH  28  29
ENDBRANCH  27  28
END_RES HIS A  38
BEGIN_RES TRP A  63
REMARK  2 active torsions:
REMARK  status: ('A' for Active; 'I' for Inactive)
REMARK   14  A    between atoms: CA   and  CB  
REMARK   15  A    between atoms: CB   and  CG  
ROOT
ATOM     35  CA  TRP A  63     -22.437   6.257   6.543  1.00 27.04     0.181 C 
ENDROOT
BRANCH  35  36
ATOM     36  CB  TRP A  63     -22.360   6.642   5.068  1.00 31.37     0.075 C 
BRANCH  36  37
ATOM     37  CG  TRP A  63     -20.973   6.555   4.467  1.00 34.37    -0.028 A 
ATOM     38  CD2 TRP A  63     -20.243   7.603   3.814  1.00 33.79    -0.002 A 
ATOM     39  CE3 TRP A  63     -20.534   8.928   3.479  1.00 32.99     0.014 A 
ATOM     40  CE2 TRP A  63     -18.973   7.083   3.482  1.00 35.84     0.042 A 
ATOM     41  CZ3 TRP A  63     -19.565   9.681   2.832  1.00 32.93     0.001 A 
ATOM     42  CH2 TRP A  63     -18.311   9.134   2.514  1.00 39.24     0.002 A 
ATOM     43  CZ2 TRP A  63     -17.997   7.840   2.832  1.00 37.99     0.030 A 
ATOM     44  NE1 TRP A  63     -18.939   5.785   3.912  1.00 37.98    -0.365 N 
ATOM     45  H06 TRP A  63     -18.157   5.154   3.814  1.00 37.98     0.165 HD
ATOM     46  CD1 TRP A  63     -20.143   5.479   4.499  1.00 38.16     0.096 A 
ENDBRANCH  36  37
ENDBRANCH  35  36
END_RES TRP A  63
BEGIN_RES LEU A  66
REMARK  2 active torsions:
REMARK  status: ('A' for Active; 'I' for Inactive)
REMARK   16  A    between atoms: CA   and  CB  
REMARK   17  A    between atoms: CB   and  CG  
ROOT
ATOM     47  CA  LEU A  66     -20.004   6.489  11.120  1.00 10.90     0.177 C 
ENDROOT
BRANCH  47  48
ATOM     48  CB  LEU A  66     -19.626   5.453  10.069  1.00 13.57     0.038 C 
BRANCH  48  49
ATOM     49  CG  LEU A  66     -19.566   3.993  10.516  1.00  8.73    -0.020 C 
ATOM     50  CD1 LEU A  66     -19.792   3.882  12.001  1.00 14.23     0.009 C 
ATOM     51  CD2 LEU A  66     -20.627   3.222   9.773  1.00  1.92     0.009 C 
ENDBRANCH  48  49
ENDBRANCH  47  48
END_RES LEU A  66
BEGIN_RES PHE A  70
REMARK  2 active torsions:
REMARK  status: ('A' for Active; 'I' for Inactive)
REMARK   18  A    between atoms: CA   and  CB  
REMARK   19  A    between atoms: CB   and  CG  
ROOT
ATOM     52  CA  PHE A  70     -14.974   9.434  13.165  1.00  8.78     0.180 C 
ENDROOT
BRANCH  52  53
ATOM     53  CB  PHE A  70     -14.707   9.132  11.681  1.00  6.33     0.073 C 
BRANCH  53  54
ATOM     54  CG  PHE A  70     -13.916   7.871  11.460  1.00  3.42    -0.056 A 
ATOM     55  CD1 PHE A  70     -13.700   7.377  10.182  1.00 13.88     0.007 A 
ATOM     56  CE1 PHE A  70     -13.001   6.173   9.986  1.00 12.71     0.001 A 
ATOM     57  CZ  PHE A  70     -12.513   5.459  11.080  1.00  4.21     0.000 A 
ATOM     58  CE2 PHE A  70     -12.720   5.942  12.359  1.00  2.83     0.001 A 
ATOM     59  CD2 PHE A  70     -13.420   7.146  12.544  1.00  1.00     0.007 A 
ENDBRANCH  53  54
ENDBRANCH  52  53
END_RES PHE A  70
BEGIN_RES TYR A  73
REMARK  3 active torsions:
REMARK  status: ('A' for Active; 'I' for Inactive)
REMARK   20  A    between atoms: CA   and  CB  
REMARK   21  A    between atoms: CB   and  CG  
REMARK   22  A    between atoms: CZ   and  OH  
ROOT
ATOM     60  CA  TYR A  73     -13.212  10.166  17.260  1.00 12.17     0.180 C 
ENDROOT
BRANCH  60  61
ATOM     61  CB  TYR A  73     -13.301   8.846  16.517  1.00 12.84     0.073 C 
BRANCH  61  62
ATOM     62  CG  TYR A  73     -12.038   8.059  16.572  1.00 15.89    -0.056 A 
ATOM     63  CD1 TYR A  73     -11.547   7.585  17.768  1.00 16.00     0.010 A 
ATOM     64  CE1 TYR A  73     -10.349   6.874  17.826  1.00 13.55     0.037 A 
ATOM     65  CZ  TYR A  73      -9.642   6.643  16.663  1.00 18.13     0.065 A 
ATOM     66  CE2 TYR A  73     -10.111   7.105  15.455  1.00 15.89     0.037 A 
ATOM     67  CD2 TYR A  73     -11.308   7.811  15.416  1.00 21.86     0.010 A 
BRANCH  65  68
ATOM     68  OH  TYR A  73      -8.463   5.941  16.695  1.00 12.12    -0.361 OA
ATOM     69  H08 TYR A  73      -7.939   6.157  15.920  1.00 12.12     0.217 HD
ENDBRANCH  65  68
ENDBRANCH  61  62
ENDBRANCH  60  61
END_RES TYR A  73
BEGIN_RES PHE A  77
REMARK  2 active torsions:
REMARK  status: ('A' for Active; 'I' for Inactive)
REMARK   23  A    between atoms: CA   and  CB  
REMARK   24  A    between atoms: CB   and  CG  
ROOT
ATOM     70  CA  PHE A  77      -8.400  10.581  20.110  1.00 17.17     0.180 C 
ENDROOT
BRANCH  70  71
ATOM     71  CB  PHE A  77      -8.228   9.750  18.851  1.00 10.44     0.073 C 
BRANCH  71  72
ATOM     72  CG  PHE A  77      -7.093   8.777  18.921  1.00  6.07    -0.056 A 
ATOM     73  CD2 PHE A  77      -5.992   8.928  18.110  1.00  9.61     0.007 A 
ATOM     74  CE2 PHE A  77      -4.932   8.030  18.169  1.00  1.00     0.001 A 
ATOM     75  CZ  PHE A  77      -4.975   6.968  19.056  1.00  1.92     0.000 A 
ATOM     76  CE1 PHE A  77      -6.069   6.804  19.876  1.00  9.25     0.001 A 
ATOM     77  CD1 PHE A  77      -7.126   7.711  19.805  1.00  9.63     0.007 A 
ENDBRANCH  71  72
ENDBRANCH  70  71
END_RES PHE A  77
BEGIN_RES LEU A  96
REMARK  2 active torsions:
REMARK  status: ('A' for Active; 'I' for Inactive)
REMARK   25  A    between atoms: CA   and  CB  
REMARK   26  A    between atoms: CB   and  CG  
ROOT
ATOM     78  CA  LEU A  96       0.717   6.481  17.359  1.00 16.08     0.177 C 
ENDROOT
BRANCH  78  79
ATOM     79  CB  LEU A  96      -0.370   7.101  18.230  1.00 18.83     0.038 C 
BRANCH  79  80
ATOM     80  CG  LEU A  96      -0.105   7.015  19.733  1.00 19.03    -0.020 C 
ATOM     81  CD1 LEU A  96       0.651   8.249  20.167  1.00 28.17     0.009 C 
ATOM     82  CD2 LEU A  96      -1.409   6.959  20.496  1.00 22.01     0.009 C 
ENDBRANCH  79  80
ENDBRANCH  78  79
END_RES LEU A  96
BEGIN_RES VAL A  98
REMARK  1 active torsions:
REMARK  status: ('A' for Active; 'I' for Inactive)
REMARK   27  A    between atoms: CA   and  CB  
ROOT
ATOM     83  CA  VAL A  98      -3.928   2.082  14.897  1.00 19.83     0.180 C 
ENDROOT
BRANCH  83  84
ATOM     84  CB  VAL A  98      -5.203   2.807  15.281  1.00 17.87     0.009 C 
ATOM     85  CG2 VAL A  98      -4.894   4.233  15.658  1.00 29.90     0.012 C 
ATOM     86  CG1 VAL A  98      -5.873   2.081  16.429  1.00 14.79     0.012 C 
ENDBRANCH  83  84
END_RES VAL A  98
BEGIN_RES ASN A 112
REMARK  2 active torsions:
REMARK  status: ('A' for Active; 'I' for Inactive)
REMARK   28  A    between atoms: CA   and  CB  
REMARK   29  A    between atoms: CB   and  CG  
REMARK       I    between atoms: CG   and  ND2 
ROOT
ATOM     87  CA  ASN A 112     -11.790  -8.793  14.069  1.00 37.70     0.185 C 
ENDROOT
BRANCH  87  88
ATOM     88  CB  ASN A 112     -12.992  -7.945  14.465  1.00 26.24     0.137 C 
BRANCH  88  89
ATOM     89  CG  ASN A 112     -13.817  -8.566  15.569  1.00 21.77     0.217 C 
ATOM     90  ND2 ASN A 112     -14.969  -9.126  15.199  1.00  9.31    -0.370 N 
ATOM     91  H04 ASN A 112     -15.566  -9.556  15.891  1.00  9.31     0.159 HD
ATOM     92  H05 ASN A 112     -15.243  -9.121  14.227  1.00  9.31     0.159 HD
ATOM     93  OD1 ASN A 112     -13.431  -8.540  16.744  1.00 21.61    -0.274 OA
ENDBRANCH  88  89
ENDBRANCH  87  88
END_RES ASN A 112
BEGIN_RES PHE A 114
REMARK  2 active torsions:
REMARK  status: ('A' for Active; 'I' for Inactive)
REMARK   30  A    between atoms: CA   and  CB  
REMARK   31  A    between atoms: CB   and  CG  
ROOT
ATOM     94  CA  PHE A 114      -7.754  -3.619  17.012  1.00 26.06     0.180 C 
ENDROOT
BRANCH  94  95
ATOM     95  CB  PHE A 114      -8.890  -3.080  17.867  1.00 19.95     0.073 C 
BRANCH  95  96
ATOM     96  CG  PHE A 114      -9.045  -1.596  17.779  1.00 17.65    -0.056 A 
ATOM     97  CD1 PHE A 114     -10.253  -1.028  17.385  1.00 13.01     0.007 A 
ATOM     98  CE1 PHE A 114     -10.389   0.350  17.275  1.00  6.74     0.001 A 
ATOM     99  CZ  PHE A 114      -9.311   1.182  17.563  1.00  6.27     0.000 A 
ATOM    100  CE2 PHE A 114      -8.104   0.628  17.957  1.00 17.36     0.001 A 
ATOM    101  CD2 PHE A 114      -7.974  -0.761  18.064  1.00 18.39     0.007 A 
ENDBRANCH  95  96
ENDBRANCH  94  95
END_RES PHE A 114
BEGIN_RES VAL A 116
REMARK  1 active torsions:
REMARK  status: ('A' for Active; 'I' for Inactive)
REMARK   32  A    between atoms: CA   and  CB  
ROOT
ATOM    102  CA  VAL A 116      -2.467   0.283  18.565  1.00 13.48     0.180 C 
ENDROOT
BRANCH 102 103
ATOM    103  CB  VAL A 116      -3.101   1.238  19.599  1.00 20.86     0.009 C 
ATOM    104  CG1 VAL A 116      -3.094   2.667  19.048  1.00 25.01     0.012 C 
ATOM    105  CG2 VAL A 116      -4.497   0.788  19.962  1.00 25.34     0.012 C 
ENDBRANCH 102 103
END_RES VAL A 116
BEGIN_RES ILE A 123
REMARK  2 active torsions:
REMARK  status: ('A' for Active; 'I' for Inactive)
REMARK   33  A    between atoms: CA   and  CB  
REMARK   34  A    between atoms: CB   and  CG1 
ROOT
ATOM    106  CA  ILE A 123       1.557  -1.626  23.222  1.00 15.07     0.180 C 
ENDROOT
BRANCH 106 107
ATOM    107  CB  ILE A 123       1.697  -0.112  23.461  1.00 14.41     0.013 C 
ATOM    108  CG2 ILE A 123       3.095   0.205  23.962  1.00 18.35     0.012 C 
BRANCH 107 109
ATOM    109  CG1 ILE A 123       1.410   0.657  22.173  1.00 15.23     0.002 C 
ATOM    110  CD1 ILE A 123       0.281   1.650  22.299  1.00 14.67     0.005 C 
ENDBRANCH 107 109
ENDBRANCH 106 107
END_RES ILE A 123
BEGIN_RES LEU A 124
REMARK  2 active torsions:
REMARK  status: ('A' for Active; 'I' for Inactive)
REMARK   35  A    between atoms: CA   and  CB  
REMARK   36  A    between atoms: CB   and  CG  
ROOT
ATOM    111  CA  LEU A 124      -2.057  -2.686  23.524  1.00 11.86     0.177 C 
ENDROOT
BRANCH 111 112
ATOM    112  CB  LEU A 124      -2.698  -1.652  24.429  1.00 14.60     0.038 C 
BRANCH 112 113
ATOM    113  CG  LEU A 124      -2.669  -0.260  23.816  1.00 16.19    -0.020 C 
ATOM    114  CD1 LEU A 124      -4.111   0.172  23.484  1.00 22.07     0.009 C 
ATOM    115  CD2 LEU A 124      -2.002   0.697  24.772  1.00  9.12     0.009 C 
ENDBRANCH 112 113
ENDBRANCH 111 112
END_RES LEU A 124
BEGIN_RES PHE A 126
REMARK  2 active torsions:
REMARK  status: ('A' for Active; 'I' for Inactive)
REMARK   37  A    between atoms: CA   and  CB  
REMARK   38  A    between atoms: CB   and  CG  
ROOT
ATOM    116  CA  PHE A 126      -8.784  -4.792  22.233  1.00 23.15     0.180 C 
ENDROOT
BRANCH 116 117
ATOM    117  CB  PHE A 126      -9.823  -4.011  21.461  1.00 20.65     0.073 C 
BRANCH 117 118
ATOM    118  CG  PHE A 126     -10.984  -3.603  22.281  1.00 23.65    -0.056 A 
ATOM    119  CD2 PHE A 126     -12.229  -4.171  22.073  1.00 36.63     0.007 A 
ATOM    120  CE2 PHE A 126     -13.328  -3.784  22.853  1.00 36.27     0.001 A 
ATOM    121  CZ  PHE A 126     -13.172  -2.825  23.842  1.00 18.06     0.000 A 
ATOM    122  CE1 PHE A 126     -11.930  -2.259  24.053  1.00  5.50     0.001 A 
ATOM    123  CD1 PHE A 126     -10.841  -2.651  23.275  1.00 15.29     0.007 A 
ENDBRANCH 117 118
ENDBRANCH 116 117
END_RES PHE A 126
BEGIN_RES TRP A 131
REMARK  2 active torsions:
REMARK  status: ('A' for Active; 'I' for Inactive)
REMARK   39  A    between atoms: CA   and  CB  
REMARK   40  A    between atoms: CB   and  CG  
ROOT
ATOM    124  CA  TRP A 131      -8.096  -3.335  26.542  1.00 14.52     0.181 C 
ENDROOT
BRANCH 124 125
ATOM    125  CB  TRP A 131      -7.651  -1.877  26.607  1.00 13.06     0.075 C 
BRANCH 125 126
ATOM    126  CG  TRP A 131      -8.485  -0.935  25.768  1.00 16.97    -0.028 A 
ATOM    127  CD2 TRP A 131      -8.324  -0.666  24.373  1.00 11.34    -0.002 A 
ATOM    128  CE2 TRP A 131      -9.315   0.263  24.003  1.00  5.87     0.042 A 
ATOM    129  CE3 TRP A 131      -7.431  -1.125  23.398  1.00  3.80     0.014 A 
ATOM    130  CZ2 TRP A 131      -9.442   0.742  22.698  1.00  1.35     0.030 A 
ATOM    131  NE1 TRP A 131     -10.048   0.550  25.122  1.00 13.90    -0.365 N 
ATOM    132  CH2 TRP A 131      -8.553   0.274  21.762  1.00  1.00     0.002 A 
ATOM    133  CZ3 TRP A 131      -7.550  -0.653  22.104  1.00  1.00     0.001 A 
ATOM    134  CD1 TRP A 131      -9.545  -0.173  26.179  1.00 17.22     0.096 A 
ATOM    135  H07 TRP A 131     -10.829   1.188  25.166  1.00 13.90     0.165 HD
ENDBRANCH 125 126
ENDBRANCH 124 125
END_RES TRP A 131
BEGIN_RES LEU A 148
REMARK  2 active torsions:
REMARK  status: ('A' for Active; 'I' for Inactive)
REMARK   41  A    between atoms: CA   and  CB  
REMARK   42  A    between atoms: CB   and  CG  
ROOT
ATOM    136  CA  LEU A 148      -9.018   3.259  29.295  1.00 16.99     0.177 C 
ENDROOT
BRANCH 136 137
ATOM    137  CB  LEU A 148      -8.166   2.574  28.236  1.00  6.39     0.038 C 
BRANCH 137 138
ATOM    138  CG  LEU A 148      -7.771   3.295  26.963  1.00  1.00    -0.020 C 
ATOM    139  CD2 LEU A 148      -8.994   3.687  26.186  1.00  1.00     0.009 C 
ATOM    140  CD1 LEU A 148      -6.893   2.367  26.144  1.00  2.71     0.009 C 
ENDBRANCH 137 138
ENDBRANCH 136 137
END_RES LEU A 148
BEGIN_RES THR A 154
REMARK  2 active torsions:
REMARK  status: ('A' for Active; 'I' for Inactive)
REMARK   43  A    between atoms: CA   and  CB  
REMARK   44  A    between atoms: CB   and  OG1 
ROOT
ATOM    141  CA  THR A 154     -15.990   3.959  24.426  1.00 20.45     0.205 C 
ENDROOT
BRANCH 141 142
ATOM    142  CB  THR A 154     -14.777   4.829  24.694  1.00 16.79     0.146 C 
ATOM    143  CG2 THR A 154     -13.599   4.355  23.864  1.00 20.24     0.042 C 
BRANCH 142 144
ATOM    144  OG1 THR A 154     -15.085   6.181  24.330  1.00 18.84    -0.393 OA
ATOM    145  H06 THR A 154     -16.003   6.367  24.539  1.00 18.84     0.210 HD
ENDBRANCH 142 144
ENDBRANCH 141 142
END_RES THR A 154
BEGIN_RES VAL A 158
REMARK  1 active torsions:
REMARK  status: ('A' for Active; 'I' for Inactive)
REMARK   45  A    between atoms: CA   and  CB  
ROOT
ATOM    146  CA  VAL A 158     -15.487  -0.189  19.892  1.00 15.49     0.180 C 
ENDROOT
BRANCH 146 147
ATOM    147  CB  VAL A 158     -14.291  -0.273  20.822  1.00  6.52     0.009 C 
ATOM    148  CG1 VAL A 158     -13.227  -1.183  20.252  1.00  1.00     0.012 C 
ATOM    149  CG2 VAL A 158     -13.749   1.107  21.033  1.00  5.99     0.012 C 
ENDBRANCH 146 147
END_RES VAL A 158
BEGIN_RES LEU A 161
REMARK  2 active torsions:
REMARK  status: ('A' for Active; 'I' for Inactive)
REMARK   46  A    between atoms: CA   and  CB  
REMARK   47  A    between atoms: CB   and  CG  
ROOT
ATOM    150  CA  LEU A 161     -18.031  -1.858  15.935  1.00 13.31     0.177 C 
ENDROOT
BRANCH 150 151
ATOM    151  CB  LEU A 161     -17.046  -0.706  16.001  1.00 14.13     0.038 C 
BRANCH 151 152
ATOM    152  CG  LEU A 161     -17.577   0.660  15.585  1.00 19.39    -0.020 C 
ATOM    153  CD2 LEU A 161     -18.062   0.619  14.156  1.00 27.75     0.009 C 
ATOM    154  CD1 LEU A 161     -16.474   1.674  15.725  1.00 18.59     0.009 C 
ENDBRANCH 151 152
ENDBRANCH 150 151
END_RES LEU A 161
BEGIN_RES GLN A 168
REMARK  3 active torsions:
REMARK  status: ('A' for Active; 'I' for Inactive)
REMARK   48  A    between atoms: CA   and  CB  
REMARK   49  A    between atoms: CB   and  CG  
REMARK   50  A    between atoms: CG   and  CD  
REMARK       I    between atoms: CD   and  NE2 
ROOT
ATOM    155  CA  GLN A 168     -22.035  -6.020   8.155  1.00 30.94     0.177 C 
ENDROOT
BRANCH 155 156
ATOM    156  CB  GLN A 168     -23.054  -5.218   8.946  1.00 41.76     0.044 C 
BRANCH 156 157
ATOM    157  CG  GLN A 168     -24.380  -5.904   9.131  1.00 61.20     0.105 C 
BRANCH 157 158
ATOM    158  CD  GLN A 168     -24.399  -6.773  10.374  1.00 75.49     0.215 C 
ATOM    159  NE2 GLN A 168     -23.997  -6.191  11.506  1.00 85.00    -0.370 N 
ATOM    160  H06 GLN A 168     -23.985  -6.719  12.367  1.00 85.00     0.159 HD
ATOM    161  H07 GLN A 168     -23.705  -5.224  11.501  1.00 85.00     0.159 HD
ATOM    162  OE1 GLN A 168     -24.764  -7.956  10.322  1.00 73.64    -0.274 OA
ENDBRANCH 157 158
ENDBRANCH 156 157
ENDBRANCH 155 156
END_RES GLN A 168
ENDMDL
MODEL 4
REMARK VINA RESULT:      -6.9      1.249      2.082
REMARK  Name = human_CD1d_tween80_pred.rank_0
REMARK  81 active torsions:
REMARK  status: ('A' for Active; 'I' for Inactive)
REMARK    1  A    between atoms: C_1  and  C_3
REMARK    2  A    between atoms: C_3  and  O_4
REMARK    3  A    between atoms: O_4  and  C_5
REMARK    4  A    between atoms: C_5  and  C_7
REMARK    5  A    between atoms: O_6  and  C_7
REMARK    6  A    between atoms: O_6  and  C_9
REMARK    7  A    between atoms: O_8  and  C_11
REMARK    8  A    between atoms: O_8  and  C_13
REMARK    9  A    between atoms: C_9  and  C_11
REMARK   10  A    between atoms: O_10  and  C_15
REMARK   11  A    between atoms: O_10  and  C_17
REMARK   12  A    between atoms: O_12  and  C_19
REMARK   13  A    between atoms: O_12  and  C_21
REMARK   14  A    between atoms: C_13  and  C_15
REMARK   15  A    between atoms: O_14  and  C_23
REMARK   16  A    between atoms: O_14  and  C_25
REMARK   17  A    between atoms: O_16  and  C_27
REMARK   18  A    between atoms: O_16  and  C_29
REMARK   19  A    between atoms: C_17  and  C_19
REMARK   20  A    between atoms: O_18  and  C_31
REMARK   21  A    between atoms: O_18  and  C_33
REMARK   22  A    between atoms: O_20  and  C_35
REMARK   23  A    between atoms: O_20  and  C_37
REMARK   24  A    between atoms: C_21  and  C_23
REMARK   25  A    between atoms: C_21  and  C_67
REMARK   26  A    between atoms: O_22  and  C_39
REMARK   27  A    between atoms: O_22  and  C_41
REMARK   28  A    between atoms: O_24  and  C_43
REMARK   29  A    between atoms: O_24  and  C_45
REMARK   30  A    between atoms: C_25  and  C_27
REMARK   31  A    between atoms: O_28  and  C_69
REMARK   32  A    between atoms: O_28  and  C_70
REMARK   33  A    between atoms: C_29  and  C_31
REMARK   34  A    between atoms: O_30  and  C_71
REMARK   35  A    between atoms: O_30  and  C_72
REMARK   36  A    between atoms: O_32  and  C_73
REMARK   37  A    between atoms: O_32  and  C_74
REMARK   38  A    between atoms: C_33  and  C_35
REMARK   39  A    between atoms: O_34  and  C_75
REMARK   40  A    between atoms: O_34  and  C_76
REMARK   41  A    between atoms: O_36  and  C_77
REMARK   42  A    between atoms: O_36  and  C_78
REMARK   43  A    between atoms: C_37  and  C_39
REMARK   44  A    between atoms: O_40  and  C_80
REMARK   45  A    between atoms: O_40  and  C_81
REMARK   46  A    between atoms: C_41  and  C_43
REMARK   47  A    between atoms: O_42  and  C_82
REMARK   48  A    between atoms: O_42  and  C_83
REMARK   49  A    between atoms: O_44  and  C_84
REMARK   50  A    between atoms: O_44  and  C_85
REMARK   51  A    between atoms: C_45  and  C_47
REMARK   52  A    between atoms: O_46  and  C_86
REMARK   53  A    between atoms: O_46  and  C_87
REMARK   54  A    between atoms: C_47  and  C_49
REMARK   55  A    between atoms: O_48  and  C_88
REMARK   56  A    between atoms: O_48  and  C_89
REMARK   57  A    between atoms: C_49  and  C_51
REMARK   58  A    between atoms: C_51  and  C_53
REMARK   59  A    between atoms: C_53  and  C_54
REMARK   60  A    between atoms: C_54  and  C_55
REMARK   61  A    between atoms: C_55  and  C_56
REMARK   62  A    between atoms: C_56  and  C_57
REMARK   63  A    between atoms: C_57  and  C_58
REMARK   64  A    between atoms: C_58  and  C_59
REMARK   65  A    between atoms: C_59  and  C_60
REMARK   66  A    between atoms: C_60  and  C_61
REMARK   67  A    between atoms: C_61  and  C_62
REMARK   68  A    between atoms: C_62  and  C_63
REMARK   69  A    between atoms: C_63  and  C_64
REMARK   70  A    between atoms: C_64  and  C_65
REMARK   71  A    between atoms: C_67  and  C_68
REMARK   72  A    between atoms: C_70  and  C_71
REMARK   73  A    between atoms: C_72  and  C_73
REMARK   74  A    between atoms: C_74  and  C_75
REMARK   75  A    between atoms: C_76  and  C_77
REMARK   76  A    between atoms: C_78  and  C_79
REMARK   77  A    between atoms: C_81  and  C_82
REMARK   78  A    between atoms: C_83  and  C_84
REMARK   79  A    between atoms: C_85  and  C_86
REMARK   80  A    between atoms: C_87  and  C_88
REMARK   81  A    between atoms: C_89  and  C_90
REMARK                            x       y       z     vdW  Elec       q    Type
REMARK                         _______ _______ _______ _____ _____    ______ ____
ROOT
ATOM      1  C   UNL     1     -11.999   4.609  19.156  0.00  0.00    +0.000 C 
ENDROOT
BRANCH   1   2
ATOM      2  C   UNL     1     -11.458   3.383  20.155  0.00  0.00    +0.000 C 
BRANCH   2   4
ATOM      3  O   UNL     1      -9.526   1.945  20.315  0.00  0.00    +0.000 OA
ATOM      4  C   UNL     1      -9.973   3.235  20.090  0.00  0.00    +0.000 C 
ATOM      5  C   UNL     1      -9.240   3.907  21.283  0.00  0.00    +0.000 C 
ATOM      6  C   UNL     1      -7.872   3.169  21.207  0.00  0.00    +0.000 C 
ATOM      7  C   UNL     1      -8.202   1.840  20.671  0.00  0.00    +0.000 C 
BRANCH   6   8
ATOM      8  O   UNL     1      -7.408   2.991  22.536  0.00  0.00    +0.000 OA
BRANCH   8   9
ATOM      9  C   UNL     1      -5.970   2.897  22.669  0.00  0.00    +0.000 C 
BRANCH   9  10
ATOM     10  C   UNL     1      -5.330   4.022  21.898  0.00  0.00    +0.000 C 
BRANCH  10  11
ATOM     11  O   UNL     1      -5.141   5.132  22.755  0.00  0.00    +0.000 OA
BRANCH  11  12
ATOM     12  C   UNL     1      -4.611   4.736  24.005  0.00  0.00    +0.000 C 
BRANCH  12  13
ATOM     13  C   UNL     1      -3.325   5.451  24.345  0.00  0.00    +0.000 C 
BRANCH  13  14
ATOM     14  O   UNL     1      -2.540   5.486  23.149  0.00  0.00    +0.000 OA
BRANCH  14  15
ATOM     15  C   UNL     1      -1.687   4.396  23.031  0.00  0.00    +0.000 C 
BRANCH  15  16
ATOM     16  C   UNL     1      -1.084   4.049  24.418  0.00  0.00    +0.000 C 
BRANCH  16  17
ATOM     17  O   UNL     1       0.288   4.078  24.280  0.00  0.00    +0.000 OA
BRANCH  17  18
ATOM     18  C   UNL     1       0.830   5.410  24.338  0.00  0.00    +0.000 C 
BRANCH  18  19
ATOM     19  C   UNL     1       0.187   6.098  25.541  0.00  0.00    +0.000 C 
BRANCH  19  20
ATOM     20  O   UNL     1       0.184   7.464  25.378  0.00  0.00    +0.000 OA
BRANCH  20  21
ATOM     21  C   UNL     1       0.165   7.823  24.022  0.00  0.00    +0.000 C 
BRANCH  21  23
ATOM     22  O   UNL     1       1.157   9.739  25.029  0.00  0.00    +0.000 OA
ATOM     23  C   UNL     1       1.031   9.026  23.778  0.00  0.00    +0.000 C 
ENDBRANCH  21  23
ENDBRANCH  20  21
ENDBRANCH  19  20
ENDBRANCH  18  19
ENDBRANCH  17  18
ENDBRANCH  16  17
ENDBRANCH  15  16
ENDBRANCH  14  15
ENDBRANCH  13  14
ENDBRANCH  12  13
ENDBRANCH  11  12
ENDBRANCH  10  11
ENDBRANCH   9  10
ENDBRANCH   8   9
ENDBRANCH   6   8
BRANCH   5  24
ATOM     24  O   UNL     1      -9.082   5.288  21.050  0.00  0.00    +0.000 OA
BRANCH  24  25
ATOM     25  C   UNL     1      -9.521   6.097  22.127  0.00  0.00    +0.000 C 
BRANCH  25  26
ATOM     26  C   UNL     1      -8.415   6.369  23.125  0.00  0.00    +0.000 C 
BRANCH  26  27
ATOM     27  O   UNL     1      -9.003   6.572  24.393  0.00  0.00    +0.000 OA
BRANCH  27  28
ATOM     28  C   UNL     1     -10.204   5.839  24.572  0.00  0.00    +0.000 C 
BRANCH  28  29
ATOM     29  C   UNL     1     -11.298   6.666  25.213  0.00  0.00    +0.000 C 
BRANCH  29  30
ATOM     30  O   UNL     1     -10.872   7.147  26.470  0.00  0.00    +0.000 OA
BRANCH  30  31
ATOM     31  C   UNL     1     -10.510   6.109  27.391  0.00  0.00    +0.000 C 
BRANCH  31  32
ATOM     32  C   UNL     1      -9.765   6.707  28.581  0.00  0.00    +0.000 C 
BRANCH  32  33
ATOM     33  O   UNL     1      -8.404   6.952  28.288  0.00  0.00    +0.000 OA
BRANCH  33  34
ATOM     34  C   UNL     1      -8.121   8.313  28.057  0.00  0.00    +0.000 C 
BRANCH  34  35
ATOM     35  C   UNL     1      -7.520   8.988  29.310  0.00  0.00    +0.000 C 
BRANCH  35  36
ATOM     36  O   UNL     1      -8.365  10.035  29.704  0.00  0.00    +0.000 OA
BRANCH  36  37
ATOM     37  C   UNL     1      -7.613  11.231  29.817  0.00  0.00    +0.000 C 
BRANCH  37  39
ATOM     38  O   UNL     1      -9.313  12.511  28.714  0.00  0.00    +0.000 OA
ATOM     39  C   UNL     1      -7.928  12.165  28.686  0.00  0.00    +0.000 C 
ENDBRANCH  37  39
ENDBRANCH  36  37
ENDBRANCH  35  36
ENDBRANCH  34  35
ENDBRANCH  33  34
ENDBRANCH  32  33
ENDBRANCH  31  32
ENDBRANCH  30  31
ENDBRANCH  29  30
ENDBRANCH  28  29
ENDBRANCH  27  28
ENDBRANCH  26  27
ENDBRANCH  25  26
ENDBRANCH  24  25
ENDBRANCH   5  24
ENDBRANCH   2   4
ENDBRANCH   1   2
BRANCH   1  40
ATOM     40  O   UNL     1     -13.071   5.276  19.836  0.00  0.00    +0.000 OA
BRANCH  40  41
ATOM     41  C   UNL     1     -14.266   4.520  19.765  0.00  0.00    +0.000 C 
BRANCH  41  42
ATOM     42  C   UNL     1     -15.350   5.109  20.672  0.00  0.00    +0.000 C 
BRANCH  42  43
ATOM     43  O   UNL     1     -16.108   6.009  19.949  0.00  0.00    +0.000 OA
BRANCH  43  44
ATOM     44  C   UNL     1     -16.471   7.168  20.699  0.00  0.00    +0.000 C 
BRANCH  44  45
ATOM     45  C   UNL     1     -15.228   7.998  20.969  0.00  0.00    +0.000 C 
BRANCH  45  46
ATOM     46  O   UNL     1     -15.261   8.464  22.282  0.00  0.00    +0.000 OA
BRANCH  46  47
ATOM     47  C   UNL     1     -16.564   8.723  22.700  0.00  0.00    +0.000 C 
BRANCH  47  48
ATOM     48  C   UNL     1     -16.529   9.702  23.874  0.00  0.00    +0.000 C 
BRANCH  48  49
ATOM     49  O   UNL     1     -15.267   9.623  24.490  0.00  0.00    +0.000 OA
BRANCH  49  50
ATOM     50  C   UNL     1     -15.302   9.769  25.891  0.00  0.00    +0.000 C 
BRANCH  50  51
ATOM     51  C   UNL     1     -13.910  10.143  26.363  0.00  0.00    +0.000 C 
BRANCH  51  52
ATOM     52  O   UNL     1     -13.756  11.556  26.126  0.00  0.00    +0.000 OA
BRANCH  52  53
ATOM     53  C   UNL     1     -12.848  11.836  25.056  0.00  0.00    +0.000 C 
BRANCH  53  54
ATOM     54  C   UNL     1     -12.657  13.298  24.863  0.00  0.00    +0.000 C 
ATOM     55  O   UNL     1     -13.786  13.817  24.183  0.00  0.00    +0.000 OA
ENDBRANCH  53  54
ENDBRANCH  52  53
ENDBRANCH  51  52
ENDBRANCH  50  51
ENDBRANCH  49  50
ENDBRANCH  48  49
ENDBRANCH  47  48
ENDBRANCH  46  47
ENDBRANCH  45  46
ENDBRANCH  44  45
ENDBRANCH  43  44
ENDBRANCH  42  43
ENDBRANCH  41  42
ENDBRANCH  40  41
ENDBRANCH   1  40
BRANCH   1  56
ATOM     56  C   UNL     1     -12.455   3.968  17.882  0.00  0.00    +0.000 C 
BRANCH  56  57
ATOM     57  O   UNL     1     -11.392   4.006  17.025  0.00  0.00    +0.000 OA
BRANCH  57  58
ATOM     58  C   UNL     1     -11.887   3.946  15.656  0.00  0.00    +0.000 C 
BRANCH  58  59
ATOM     59  C   UNL     1     -10.734   3.715  14.700  0.00  0.00    +0.000 C 
BRANCH  59  60
ATOM     60  O   UNL     1     -11.199   2.981  13.594  0.00  0.00    +0.000 OA
BRANCH  60  61
ATOM     61  C   UNL     1     -10.156   2.658  12.708  0.00  0.00    +0.000 C 
BRANCH  61  62
ATOM     62  C   UNL     1      -9.260   3.897  12.577  0.00  0.00    +0.000 C 
BRANCH  62  63
ATOM     63  O   UNL     1      -8.606   3.856  11.296  0.00  0.00    +0.000 OA
BRANCH  63  64
ATOM     64  C   UNL     1      -8.973   4.979  10.485  0.00  0.00    +0.000 C 
BRANCH  64  65
ATOM     65  C   UNL     1      -9.415   4.515   9.110  0.00  0.00    +0.000 C 
BRANCH  65  66
ATOM     66  O   UNL     1      -9.164   5.580   8.185  0.00  0.00    +0.000 OA
BRANCH  66  67
ATOM     67  C   UNL     1     -10.284   5.803   7.296  0.00  0.00    +0.000 C 
BRANCH  67  68
ATOM     68  C   UNL     1     -10.939   4.415   7.036  0.00  0.00    +0.000 C 
BRANCH  68  69
ATOM     69  O   UNL     1     -12.260   4.596   6.537  0.00  0.00    +0.000 OA
BRANCH  69  70
ATOM     70  C   UNL     1     -13.241   3.875   7.290  0.00  0.00    +0.000 C 
BRANCH  70  71
ATOM     71  C   UNL     1     -14.278   3.304   6.377  0.00  0.00    +0.000 C 
BRANCH  71  72
ATOM     72  O   UNL     1     -14.891   4.340   5.658  0.00  0.00    +0.000 OA
BRANCH  72  74
ATOM     73  O   UNL     1     -16.792   3.953   4.590  0.00  0.00    +0.000 OA
ATOM     74  C   UNL     1     -16.250   4.182   5.603  0.00  0.00    +0.000 C 
BRANCH  74  75
ATOM     75  C   UNL     1     -17.011   4.352   6.878  0.00  0.00    +0.000 C 
BRANCH  75  76
ATOM     76  C   UNL     1     -17.229   5.859   7.213  0.00  0.00    +0.000 C 
BRANCH  76  77
ATOM     77  C   UNL     1     -16.409   6.145   8.444  0.00  0.00    +0.000 C 
BRANCH  77  78
ATOM     78  C   UNL     1     -16.186   4.871   9.207  0.00  0.00    +0.000 C 
BRANCH  78  79
ATOM     79  C   UNL     1     -16.351   5.121  10.675  0.00  0.00    +0.000 C 
BRANCH  79  80
ATOM     80  C   UNL     1     -16.003   3.846  11.425  0.00  0.00    +0.000 C 
BRANCH  80  81
ATOM     81  C   UNL     1     -15.736   2.778  10.407  0.00  0.00    +0.000 C 
BRANCH  81  82
ATOM     82  C   UNL     1     -16.748   1.673  10.512  0.00  0.00    +0.000 C 
BRANCH  82  83
ATOM     83  C   UNL     1     -16.727   0.837   9.272  0.00  0.00    +0.000 C 
BRANCH  83  84
ATOM     84  C   UNL     1     -15.298   0.355   9.062  0.00  0.00    +0.000 C 
BRANCH  84  85
ATOM     85  C   UNL     1     -15.181  -1.040   9.578  0.00  0.00    +0.000 C 
BRANCH  85  86
ATOM     86  C   UNL     1     -14.322  -1.008  10.848  0.00  0.00    +0.000 C 
BRANCH  86  87
ATOM     87  C   UNL     1     -15.209  -1.271  12.054  0.00  0.00    +0.000 C 
BRANCH  87  88
ATOM     88  C   UNL     1     -14.295  -1.630  13.208  0.00  0.00    +0.000 C 
BRANCH  88  89
ATOM     89  C   UNL     1     -13.045  -0.773  13.103  0.00  0.00    +0.000 C 
BRANCH  89  90
ATOM     90  C   UNL     1     -12.918   0.104  14.312  0.00  0.00    +0.000 C 
ATOM     91  C   UNL     1     -13.769  -0.441  15.444  0.00  0.00    +0.000 C 
ENDBRANCH  89  90
ENDBRANCH  88  89
ENDBRANCH  87  88
ENDBRANCH  86  87
ENDBRANCH  85  86
ENDBRANCH  84  85
ENDBRANCH  83  84
ENDBRANCH  82  83
ENDBRANCH  81  82
ENDBRANCH  80  81
ENDBRANCH  79  80
ENDBRANCH  78  79
ENDBRANCH  77  78
ENDBRANCH  76  77
ENDBRANCH  75  76
ENDBRANCH  74  75
ENDBRANCH  72  74
ENDBRANCH  71  72
ENDBRANCH  70  71
ENDBRANCH  69  70
ENDBRANCH  68  69
ENDBRANCH  67  68
ENDBRANCH  66  67
ENDBRANCH  65  66
ENDBRANCH  64  65
ENDBRANCH  63  64
ENDBRANCH  62  63
ENDBRANCH  61  62
ENDBRANCH  60  61
ENDBRANCH  59  60
ENDBRANCH  58  59
ENDBRANCH  57  58
ENDBRANCH  56  57
ENDBRANCH   1  56
TORSDOF 81
BEGIN_RES LEU A  10
REMARK  2 active torsions:
REMARK  status: ('A' for Active; 'I' for Inactive)
REMARK    1  A    between atoms: CA   and  CB  
REMARK    2  A    between atoms: CB   and  CG  
ROOT
ATOM      1  CA  LEU A  10     -10.775  -4.871   5.898  1.00 25.14     0.177 C 
ENDROOT
BRANCH   1   2
ATOM      2  CB  LEU A  10     -12.191  -4.387   6.226  1.00 17.87     0.038 C 
BRANCH   2   3
ATOM      3  CG  LEU A  10     -12.443  -2.910   5.914  1.00 24.95    -0.020 C 
ATOM      4  CD2 LEU A  10     -12.704  -2.182   7.189  1.00 26.38     0.009 C 
ATOM      5  CD1 LEU A  10     -13.612  -2.749   4.957  1.00 28.12     0.009 C 
ENDBRANCH   2   3
ENDBRANCH   1   2
END_RES LEU A  10
BEGIN_RES CYS A  12
REMARK  2 active torsions:
REMARK  status: ('A' for Active; 'I' for Inactive)
REMARK    3  A    between atoms: CA   and  CB  
REMARK    4  A    between atoms: CB   and  SG  
ROOT
ATOM      6  CA  CYS A  12      -8.555   0.470   8.750  1.00 23.16     0.185 C 
ENDROOT
BRANCH   6   7
ATOM      7  CB  CYS A  12      -9.828   0.763   9.555  1.00 20.43     0.105 C 
BRANCH   7   8
ATOM      8  SG  CYS A  12     -11.357   0.964   8.589  1.00 24.64    -0.180 SA
ATOM      9  H04 CYS A  12     -12.246   1.668   9.301  1.00 24.64     0.101 HD
ENDBRANCH   7   8
ENDBRANCH   6   7
END_RES CYS A  12
BEGIN_RES GLN A  14
REMARK  3 active torsions:
REMARK  status: ('A' for Active; 'I' for Inactive)
REMARK    5  A    between atoms: CA   and  CB  
REMARK    6  A    between atoms: CB   and  CG  
REMARK    7  A    between atoms: CG   and  CD  
REMARK       I    between atoms: CD   and  NE2 
ROOT
ATOM     10  CA  GLN A  14      -4.645   5.402  11.377  1.00 10.43     0.177 C 
ENDROOT
BRANCH  10  11
ATOM     11  CB  GLN A  14      -5.541   5.549  12.608  1.00 14.45     0.044 C 
BRANCH  11  12
ATOM     12  CG  GLN A  14      -6.374   6.810  12.618  1.00 13.74     0.105 C 
BRANCH  12  13
ATOM     13  CD  GLN A  14      -5.848   7.842  13.586  1.00 16.29     0.215 C 
ATOM     14  NE2 GLN A  14      -6.748   8.541  14.244  1.00  8.57    -0.370 N 
ATOM     15  H06 GLN A  14      -6.454   9.245  14.906  1.00  8.57     0.159 HD
ATOM     16  H07 GLN A  14      -7.731   8.374  14.086  1.00  8.57     0.159 HD
ATOM     17  OE1 GLN A  14      -4.648   8.005  13.742  1.00 23.55    -0.274 OA
ENDBRANCH  12  13
ENDBRANCH  11  12
ENDBRANCH  10  11
END_RES GLN A  14
BEGIN_RES SER A  16
REMARK  2 active torsions:
REMARK  status: ('A' for Active; 'I' for Inactive)
REMARK    8  A    between atoms: CA   and  CB  
REMARK    9  A    between atoms: CB   and  OG  
ROOT
ATOM     18  CA  SER A  16      -1.305  10.019  14.282  1.00  2.34     0.200 C 
ENDROOT
BRANCH  18  19
ATOM     19  CB  SER A  16      -2.242   9.935  15.479  1.00  3.12     0.199 C 
BRANCH  19  20
ATOM     20  OG  SER A  16      -2.456   8.583  15.843  1.00  1.00    -0.398 OA
ATOM     21  H04 SER A  16      -2.151   8.009  15.137  1.00  1.00     0.209 HD
ENDBRANCH  19  20
ENDBRANCH  18  19
END_RES SER A  16
BEGIN_RES LEU A  32
REMARK  2 active torsions:
REMARK  status: ('A' for Active; 'I' for Inactive)
REMARK   10  A    between atoms: CA   and  CB  
REMARK   11  A    between atoms: CB   and  CG  
ROOT
ATOM     22  CA  LEU A  32     -10.272  -4.106   1.587  1.00 16.16     0.177 C 
ENDROOT
BRANCH  22  23
ATOM     23  CB  LEU A  32     -11.613  -3.858   0.880  1.00 12.35     0.038 C 
BRANCH  23  24
ATOM     24  CG  LEU A  32     -12.810  -4.296   1.749  1.00  9.77    -0.020 C 
ATOM     25  CD1 LEU A  32     -13.988  -4.657   0.876  1.00  4.35     0.009 C 
ATOM     26  CD2 LEU A  32     -12.442  -5.471   2.616  1.00 10.60     0.009 C 
ENDBRANCH  23  24
ENDBRANCH  22  23
END_RES LEU A  32
BEGIN_RES HIS A  38
REMARK  2 active torsions:
REMARK  status: ('A' for Active; 'I' for Inactive)
REMARK   12  A    between atoms: CA   and  CB  
REMARK   13  A    between atoms: CB   and  CG  
ROOT
ATOM     27  CA  HIS A  38     -10.959   4.941   1.621  1.00 16.94     0.182 C 
ENDROOT
BRANCH  27  28
ATOM     28  CB  HIS A  38     -11.810   4.840   2.881  1.00 15.47     0.095 C 
BRANCH  28  29
ATOM     29  CG  HIS A  38     -13.012   3.965   2.729  1.00 18.62     0.053 A 
ATOM     30  CD2 HIS A  38     -14.205   4.189   2.128  1.00 15.06     0.116 A 
ATOM     31  NE2 HIS A  38     -14.940   3.039   2.252  1.00 18.12    -0.359 N 
ATOM     32  CE1 HIS A  38     -14.228   2.140   2.905  1.00 14.78     0.207 A 
ATOM     33  H06 HIS A  38     -15.877   2.901   1.900  1.00 18.12     0.166 HD
ATOM     34  ND1 HIS A  38     -13.061   2.673   3.206  1.00 16.58    -0.247 NA
ENDBRANCH  28  29
ENDBRANCH  27  28
END_RES HIS A  38
BEGIN_RES TRP A  63
REMARK  2 active torsions:
REMARK  status: ('A' for Active; 'I' for Inactive)
REMARK   14  A    between atoms: CA   and  CB  
REMARK   15  A    between atoms: CB   and  CG  
ROOT
ATOM     35  CA  TRP A  63     -22.437   6.257   6.543  1.00 27.04     0.181 C 
ENDROOT
BRANCH  35  36
ATOM     36  CB  TRP A  63     -22.360   6.642   5.068  1.00 31.37     0.075 C 
BRANCH  36  37
ATOM     37  CG  TRP A  63     -20.967   6.590   4.476  1.00 34.37    -0.028 A 
ATOM     38  CD2 TRP A  63     -20.259   7.657   3.830  1.00 33.79    -0.002 A 
ATOM     39  CE3 TRP A  63     -20.580   8.974   3.494  1.00 32.99     0.014 A 
ATOM     40  CE2 TRP A  63     -18.974   7.169   3.506  1.00 35.84     0.042 A 
ATOM     41  CZ3 TRP A  63     -19.625   9.752   2.855  1.00 32.93     0.001 A 
ATOM     42  CH2 TRP A  63     -18.356   9.237   2.545  1.00 39.24     0.002 A 
ATOM     43  CZ2 TRP A  63     -18.013   7.950   2.864  1.00 37.99     0.030 A 
ATOM     44  NE1 TRP A  63     -18.911   5.871   3.935  1.00 37.98    -0.365 N 
ATOM     45  H06 TRP A  63     -18.113   5.260   3.841  1.00 37.98     0.165 HD
ATOM     46  CD1 TRP A  63     -20.112   5.534   4.512  1.00 38.16     0.096 A 
ENDBRANCH  36  37
ENDBRANCH  35  36
END_RES TRP A  63
BEGIN_RES LEU A  66
REMARK  2 active torsions:
REMARK  status: ('A' for Active; 'I' for Inactive)
REMARK   16  A    between atoms: CA   and  CB  
REMARK   17  A    between atoms: CB   and  CG  
ROOT
ATOM     47  CA  LEU A  66     -20.004   6.489  11.120  1.00 10.90     0.177 C 
ENDROOT
BRANCH  47  48
ATOM     48  CB  LEU A  66     -19.626   5.453  10.069  1.00 13.57     0.038 C 
BRANCH  48  49
ATOM     49  CG  LEU A  66     -20.168   4.037  10.256  1.00  8.73    -0.020 C 
ATOM     50  CD1 LEU A  66     -19.690   3.134   9.149  1.00 14.23     0.009 C 
ATOM     51  CD2 LEU A  66     -19.693   3.516  11.589  1.00  1.92     0.009 C 
ENDBRANCH  48  49
ENDBRANCH  47  48
END_RES LEU A  66
BEGIN_RES PHE A  70
REMARK  2 active torsions:
REMARK  status: ('A' for Active; 'I' for Inactive)
REMARK   18  A    between atoms: CA   and  CB  
REMARK   19  A    between atoms: CB   and  CG  
ROOT
ATOM     52  CA  PHE A  70     -14.974   9.434  13.165  1.00  8.78     0.180 C 
ENDROOT
BRANCH  52  53
ATOM     53  CB  PHE A  70     -14.707   9.132  11.681  1.00  6.33     0.073 C 
BRANCH  53  54
ATOM     54  CG  PHE A  70     -13.986   7.831  11.456  1.00  3.42    -0.056 A 
ATOM     55  CD1 PHE A  70     -13.660   7.000  12.517  1.00 13.88     0.007 A 
ATOM     56  CE1 PHE A  70     -12.944   5.809  12.304  1.00 12.71     0.001 A 
ATOM     57  CZ  PHE A  70     -12.553   5.446  11.015  1.00  4.21     0.000 A 
ATOM     58  CE2 PHE A  70     -12.874   6.265   9.949  1.00  2.83     0.001 A 
ATOM     59  CD2 PHE A  70     -13.589   7.454  10.172  1.00  1.00     0.007 A 
ENDBRANCH  53  54
ENDBRANCH  52  53
END_RES PHE A  70
BEGIN_RES TYR A  73
REMARK  3 active torsions:
REMARK  status: ('A' for Active; 'I' for Inactive)
REMARK   20  A    between atoms: CA   and  CB  
REMARK   21  A    between atoms: CB   and  CG  
REMARK   22  A    between atoms: CZ   and  OH  
ROOT
ATOM     60  CA  TYR A  73     -13.212  10.166  17.260  1.00 12.17     0.180 C 
ENDROOT
BRANCH  60  61
ATOM     61  CB  TYR A  73     -13.301   8.846  16.517  1.00 12.84     0.073 C 
BRANCH  61  62
ATOM     62  CG  TYR A  73     -11.976   8.195  16.324  1.00 15.89    -0.056 A 
ATOM     63  CD1 TYR A  73     -11.433   8.047  15.067  1.00 16.00     0.010 A 
ATOM     64  CE1 TYR A  73     -10.206   7.409  14.881  1.00 13.55     0.037 A 
ATOM     65  CZ  TYR A  73      -9.527   6.917  15.977  1.00 18.13     0.065 A 
ATOM     66  CE2 TYR A  73     -10.047   7.053  17.243  1.00 15.89     0.037 A 
ATOM     67  CD2 TYR A  73     -11.269   7.691  17.410  1.00 21.86     0.010 A 
BRANCH  65  68
ATOM     68  OH  TYR A  73      -8.315   6.291  15.818  1.00 12.12    -0.361 OA
ATOM     69  H08 TYR A  73      -7.611   6.878  16.103  1.00 12.12     0.217 HD
ENDBRANCH  65  68
ENDBRANCH  61  62
ENDBRANCH  60  61
END_RES TYR A  73
BEGIN_RES PHE A  77
REMARK  2 active torsions:
REMARK  status: ('A' for Active; 'I' for Inactive)
REMARK   23  A    between atoms: CA   and  CB  
REMARK   24  A    between atoms: CB   and  CG  
ROOT
ATOM     70  CA  PHE A  77      -8.400  10.581  20.110  1.00 17.17     0.180 C 
ENDROOT
BRANCH  70  71
ATOM     71  CB  PHE A  77      -8.228   9.750  18.851  1.00 10.44     0.073 C 
BRANCH  71  72
ATOM     72  CG  PHE A  77      -7.110   8.758  18.931  1.00  6.07    -0.056 A 
ATOM     73  CD2 PHE A  77      -7.038   7.870  19.980  1.00  9.61     0.007 A 
ATOM     74  CE2 PHE A  77      -6.004   6.944  20.062  1.00  1.00     0.001 A 
ATOM     75  CZ  PHE A  77      -5.031   6.905  19.078  1.00  1.92     0.000 A 
ATOM     76  CE1 PHE A  77      -5.091   7.785  18.021  1.00  9.25     0.001 A 
ATOM     77  CD1 PHE A  77      -6.132   8.711  17.952  1.00  9.63     0.007 A 
ENDBRANCH  71  72
ENDBRANCH  70  71
END_RES PHE A  77
BEGIN_RES LEU A  96
REMARK  2 active torsions:
REMARK  status: ('A' for Active; 'I' for Inactive)
REMARK   25  A    between atoms: CA   and  CB  
REMARK   26  A    between atoms: CB   and  CG  
ROOT
ATOM     78  CA  LEU A  96       0.717   6.481  17.359  1.00 16.08     0.177 C 
ENDROOT
BRANCH  78  79
ATOM     79  CB  LEU A  96      -0.370   7.101  18.230  1.00 18.83     0.038 C 
BRANCH  79  80
ATOM     80  CG  LEU A  96      -0.160   6.920  19.733  1.00 19.03    -0.020 C 
ATOM     81  CD1 LEU A  96       0.447   5.558  19.980  1.00 28.17     0.009 C 
ATOM     82  CD2 LEU A  96       0.789   7.969  20.263  1.00 22.01     0.009 C 
ENDBRANCH  79  80
ENDBRANCH  78  79
END_RES LEU A  96
BEGIN_RES VAL A  98
REMARK  1 active torsions:
REMARK  status: ('A' for Active; 'I' for Inactive)
REMARK   27  A    between atoms: CA   and  CB  
ROOT
ATOM     83  CA  VAL A  98      -3.928   2.082  14.897  1.00 19.83     0.180 C 
ENDROOT
BRANCH  83  84
ATOM     84  CB  VAL A  98      -5.203   2.807  15.281  1.00 17.87     0.009 C 
ATOM     85  CG2 VAL A  98      -5.302   2.920  16.780  1.00 29.90     0.012 C 
ATOM     86  CG1 VAL A  98      -6.397   2.065  14.718  1.00 14.79     0.012 C 
ENDBRANCH  83  84
END_RES VAL A  98
BEGIN_RES ASN A 112
REMARK  2 active torsions:
REMARK  status: ('A' for Active; 'I' for Inactive)
REMARK   28  A    between atoms: CA   and  CB  
REMARK   29  A    between atoms: CB   and  CG  
REMARK       I    between atoms: CG   and  ND2 
ROOT
ATOM     87  CA  ASN A 112     -11.790  -8.793  14.069  1.00 37.70     0.185 C 
ENDROOT
BRANCH  87  88
ATOM     88  CB  ASN A 112     -12.992  -7.945  14.465  1.00 26.24     0.137 C 
BRANCH  88  89
ATOM     89  CG  ASN A 112     -13.815  -8.564  15.573  1.00 21.77     0.217 C 
ATOM     90  ND2 ASN A 112     -14.965  -9.128  15.206  1.00  9.31    -0.370 N 
ATOM     91  H04 ASN A 112     -15.561  -9.557  15.900  1.00  9.31     0.159 HD
ATOM     92  H05 ASN A 112     -15.241  -9.127  14.234  1.00  9.31     0.159 HD
ATOM     93  OD1 ASN A 112     -13.427  -8.533  16.747  1.00 21.61    -0.274 OA
ENDBRANCH  88  89
ENDBRANCH  87  88
END_RES ASN A 112
BEGIN_RES PHE A 114
REMARK  2 active torsions:
REMARK  status: ('A' for Active; 'I' for Inactive)
REMARK   30  A    between atoms: CA   and  CB  
REMARK   31  A    between atoms: CB   and  CG  
ROOT
ATOM     94  CA  PHE A 114      -7.754  -3.619  17.012  1.00 26.06     0.180 C 
ENDROOT
BRANCH  94  95
ATOM     95  CB  PHE A 114      -8.890  -3.080  17.867  1.00 19.95     0.073 C 
BRANCH  95  96
ATOM     96  CG  PHE A 114      -9.202  -1.643  17.599  1.00 17.65    -0.056 A 
ATOM     97  CD1 PHE A 114      -8.182  -0.716  17.406  1.00 13.01     0.007 A 
ATOM     98  CE1 PHE A 114      -8.471   0.624  17.187  1.00  6.74     0.001 A 
ATOM     99  CZ  PHE A 114      -9.793   1.057  17.154  1.00  6.27     0.000 A 
ATOM    100  CE2 PHE A 114     -10.817   0.143  17.344  1.00 17.36     0.001 A 
ATOM    101  CD2 PHE A 114     -10.519  -1.206  17.566  1.00 18.39     0.007 A 
ENDBRANCH  95  96
ENDBRANCH  94  95
END_RES PHE A 114
BEGIN_RES VAL A 116
REMARK  1 active torsions:
REMARK  status: ('A' for Active; 'I' for Inactive)
REMARK   32  A    between atoms: CA   and  CB  
ROOT
ATOM    102  CA  VAL A 116      -2.467   0.283  18.565  1.00 13.48     0.180 C 
ENDROOT
BRANCH 102 103
ATOM    103  CB  VAL A 116      -3.101   1.238  19.599  1.00 20.86     0.009 C 
ATOM    104  CG1 VAL A 116      -2.752   2.685  19.240  1.00 25.01     0.012 C 
ATOM    105  CG2 VAL A 116      -4.595   1.029  19.680  1.00 25.34     0.012 C 
ENDBRANCH 102 103
END_RES VAL A 116
BEGIN_RES ILE A 123
REMARK  2 active torsions:
REMARK  status: ('A' for Active; 'I' for Inactive)
REMARK   33  A    between atoms: CA   and  CB  
REMARK   34  A    between atoms: CB   and  CG1 
ROOT
ATOM    106  CA  ILE A 123       1.557  -1.626  23.222  1.00 15.07     0.180 C 
ENDROOT
BRANCH 106 107
ATOM    107  CB  ILE A 123       1.697  -0.112  23.461  1.00 14.41     0.013 C 
ATOM    108  CG2 ILE A 123       3.082   0.201  24.000  1.00 18.35     0.012 C 
BRANCH 107 109
ATOM    109  CG1 ILE A 123       1.450   0.655  22.164  1.00 15.23     0.002 C 
ATOM    110  CD1 ILE A 123       0.127   1.381  22.133  1.00 14.67     0.005 C 
ENDBRANCH 107 109
ENDBRANCH 106 107
END_RES ILE A 123
BEGIN_RES LEU A 124
REMARK  2 active torsions:
REMARK  status: ('A' for Active; 'I' for Inactive)
REMARK   35  A    between atoms: CA   and  CB  
REMARK   36  A    between atoms: CB   and  CG  
ROOT
ATOM    111  CA  LEU A 124      -2.057  -2.686  23.524  1.00 11.86     0.177 C 
ENDROOT
BRANCH 111 112
ATOM    112  CB  LEU A 124      -2.698  -1.652  24.429  1.00 14.60     0.038 C 
BRANCH 112 113
ATOM    113  CG  LEU A 124      -2.602  -0.248  23.851  1.00 16.19    -0.020 C 
ATOM    114  CD1 LEU A 124      -3.974   0.154  23.278  1.00 22.07     0.009 C 
ATOM    115  CD2 LEU A 124      -2.139   0.706  24.923  1.00  9.12     0.009 C 
ENDBRANCH 112 113
ENDBRANCH 111 112
END_RES LEU A 124
BEGIN_RES PHE A 126
REMARK  2 active torsions:
REMARK  status: ('A' for Active; 'I' for Inactive)
REMARK   37  A    between atoms: CA   and  CB  
REMARK   38  A    between atoms: CB   and  CG  
ROOT
ATOM    116  CA  PHE A 126      -8.784  -4.792  22.233  1.00 23.15     0.180 C 
ENDROOT
BRANCH 116 117
ATOM    117  CB  PHE A 126      -9.823  -4.011  21.461  1.00 20.65     0.073 C 
BRANCH 117 118
ATOM    118  CG  PHE A 126     -10.950  -3.544  22.296  1.00 23.65    -0.056 A 
ATOM    119  CD2 PHE A 126     -10.757  -2.571  23.262  1.00 36.63     0.007 A 
ATOM    120  CE2 PHE A 126     -11.827  -2.128  24.052  1.00 36.27     0.001 A 
ATOM    121  CZ  PHE A 126     -13.091  -2.667  23.869  1.00 18.06     0.000 A 
ATOM    122  CE1 PHE A 126     -13.288  -3.636  22.905  1.00  5.50     0.001 A 
ATOM    123  CD1 PHE A 126     -12.219  -4.069  22.121  1.00 15.29     0.007 A 
ENDBRANCH 117 118
ENDBRANCH 116 117
END_RES PHE A 126
BEGIN_RES TRP A 131
REMARK  2 active torsions:
REMARK  status: ('A' for Active; 'I' for Inactive)
REMARK   39  A    between atoms: CA   and  CB  
REMARK   40  A    between atoms: CB   and  CG  
ROOT
ATOM    124  CA  TRP A 131      -8.096  -3.335  26.542  1.00 14.52     0.181 C 
ENDROOT
BRANCH 124 125
ATOM    125  CB  TRP A 131      -7.651  -1.877  26.607  1.00 13.06     0.075 C 
BRANCH 125 126
ATOM    126  CG  TRP A 131      -8.100  -1.037  25.431  1.00 16.97    -0.028 A 
ATOM    127  CD2 TRP A 131      -9.188  -0.110  25.413  1.00 11.34    -0.002 A 
ATOM    128  CE2 TRP A 131      -9.244   0.451  24.122  1.00  5.87     0.042 A 
ATOM    129  CE3 TRP A 131     -10.124   0.299  26.369  1.00  3.80     0.014 A 
ATOM    130  CZ2 TRP A 131     -10.199   1.404  23.763  1.00  1.35     0.030 A 
ATOM    131  NE1 TRP A 131      -8.237  -0.110  23.386  1.00 13.90    -0.365 N 
ATOM    132  CH2 TRP A 131     -11.104   1.788  24.721  1.00  1.00     0.002 A 
ATOM    133  CZ3 TRP A 131     -11.074   1.242  26.018  1.00  1.00     0.001 A 
ATOM    134  CD1 TRP A 131      -7.553  -1.003  24.178  1.00 17.22     0.096 A 
ATOM    135  H07 TRP A 131      -8.029   0.097  22.420  1.00 13.90     0.165 HD
ENDBRANCH 125 126
ENDBRANCH 124 125
END_RES TRP A 131
BEGIN_RES LEU A 148
REMARK  2 active torsions:
REMARK  status: ('A' for Active; 'I' for Inactive)
REMARK   41  A    between atoms: CA   and  CB  
REMARK   42  A    between atoms: CB   and  CG  
ROOT
ATOM    136  CA  LEU A 148      -9.018   3.259  29.295  1.00 16.99     0.177 C 
ENDROOT
BRANCH 136 137
ATOM    137  CB  LEU A 148      -8.166   2.574  28.236  1.00  6.39     0.038 C 
BRANCH 137 138
ATOM    138  CG  LEU A 148      -7.281   3.377  27.305  1.00  1.00    -0.020 C 
ATOM    139  CD2 LEU A 148      -7.918   3.491  25.951  1.00  1.00     0.009 C 
ATOM    140  CD1 LEU A 148      -5.937   2.678  27.205  1.00  2.71     0.009 C 
ENDBRANCH 137 138
ENDBRANCH 136 137
END_RES LEU A 148
BEGIN_RES THR A 154
REMARK  2 active torsions:
REMARK  status: ('A' for Active; 'I' for Inactive)
REMARK   43  A    between atoms: CA   and  CB  
REMARK   44  A    between atoms: CB   and  OG1 
ROOT
ATOM    141  CA  THR A 154     -15.990   3.959  24.426  1.00 20.45     0.205 C 
ENDROOT
BRANCH 141 142
ATOM    142  CB  THR A 154     -14.777   4.829  24.694  1.00 16.79     0.146 C 
ATOM    143  CG2 THR A 154     -13.611   4.381  23.834  1.00 20.24     0.042 C 
BRANCH 142 144
ATOM    144  OG1 THR A 154     -15.098   6.187  24.367  1.00 18.84    -0.393 OA
ATOM    145  H06 THR A 154     -15.995   6.381  24.649  1.00 18.84     0.210 HD
ENDBRANCH 142 144
ENDBRANCH 141 142
END_RES THR A 154
BEGIN_RES VAL A 158
REMARK  1 active torsions:
REMARK  status: ('A' for Active; 'I' for Inactive)
REMARK   45  A    between atoms: CA   and  CB  
ROOT
ATOM    146  CA  VAL A 158     -15.487  -0.189  19.892  1.00 15.49     0.180 C 
ENDROOT
BRANCH 146 147
ATOM    147  CB  VAL A 158     -14.291  -0.273  20.822  1.00  6.52     0.009 C 
ATOM    148  CG1 VAL A 158     -13.204  -1.137  20.226  1.00  1.00     0.012 C 
ATOM    149  CG2 VAL A 158     -13.784   1.112  21.079  1.00  5.99     0.012 C 
ENDBRANCH 146 147
END_RES VAL A 158
BEGIN_RES LEU A 161
REMARK  2 active torsions:
REMARK  status: ('A' for Active; 'I' for Inactive)
REMARK   46  A    between atoms: CA   and  CB  
REMARK   47  A    between atoms: CB   and  CG  
ROOT
ATOM    150  CA  LEU A 161     -18.031  -1.858  15.935  1.00 13.31     0.177 C 
ENDROOT
BRANCH 150 151
ATOM    151  CB  LEU A 161     -17.046  -0.706  16.001  1.00 14.13     0.038 C 
BRANCH 151 152
ATOM    152  CG  LEU A 161     -17.549   0.642  15.499  1.00 19.39    -0.020 C 
ATOM    153  CD2 LEU A 161     -17.390   0.733  14.000  1.00 27.75     0.009 C 
ATOM    154  CD1 LEU A 161     -16.762   1.735  16.169  1.00 18.59     0.009 C 
ENDBRANCH 151 152
ENDBRANCH 150 151
END_RES LEU A 161
BEGIN_RES GLN A 168
REMARK  3 active torsions:
REMARK  status: ('A' for Active; 'I' for Inactive)
REMARK   48  A    between atoms: CA   and  CB  
REMARK   49  A    between atoms: CB   and  CG  
REMARK   50  A    between atoms: CG   and  CD  
REMARK       I    between atoms: CD   and  NE2 
ROOT
ATOM    155  CA  GLN A 168     -22.035  -6.020   8.155  1.00 30.94     0.177 C 
ENDROOT
BRANCH 155 156
ATOM    156  CB  GLN A 168     -23.054  -5.218   8.946  1.00 41.76     0.044 C 
BRANCH 156 157
ATOM    157  CG  GLN A 168     -24.481  -5.428   8.519  1.00 61.20     0.105 C 
BRANCH 157 158
ATOM    158  CD  GLN A 168     -24.982  -4.297   7.642  1.00 75.49     0.215 C 
ATOM    159  NE2 GLN A 168     -24.803  -4.445   6.328  1.00 85.00    -0.370 N 
ATOM    160  H06 GLN A 168     -25.112  -3.725   5.692  1.00 85.00     0.159 HD
ATOM    161  H07 GLN A 168     -24.357  -5.279   5.970  1.00 85.00     0.159 HD
ATOM    162  OE1 GLN A 168     -25.519  -3.295   8.136  1.00 73.64    -0.274 OA
ENDBRANCH 157 158
ENDBRANCH 156 157
ENDBRANCH 155 156
END_RES GLN A 168
ENDMDL
MODEL 5
REMARK VINA RESULT:      -6.7      1.921      3.090
REMARK  Name = human_CD1d_tween80_pred.rank_0
REMARK  81 active torsions:
REMARK  status: ('A' for Active; 'I' for Inactive)
REMARK    1  A    between atoms: C_1  and  C_3
REMARK    2  A    between atoms: C_3  and  O_4
REMARK    3  A    between atoms: O_4  and  C_5
REMARK    4  A    between atoms: C_5  and  C_7
REMARK    5  A    between atoms: O_6  and  C_7
REMARK    6  A    between atoms: O_6  and  C_9
REMARK    7  A    between atoms: O_8  and  C_11
REMARK    8  A    between atoms: O_8  and  C_13
REMARK    9  A    between atoms: C_9  and  C_11
REMARK   10  A    between atoms: O_10  and  C_15
REMARK   11  A    between atoms: O_10  and  C_17
REMARK   12  A    between atoms: O_12  and  C_19
REMARK   13  A    between atoms: O_12  and  C_21
REMARK   14  A    between atoms: C_13  and  C_15
REMARK   15  A    between atoms: O_14  and  C_23
REMARK   16  A    between atoms: O_14  and  C_25
REMARK   17  A    between atoms: O_16  and  C_27
REMARK   18  A    between atoms: O_16  and  C_29
REMARK   19  A    between atoms: C_17  and  C_19
REMARK   20  A    between atoms: O_18  and  C_31
REMARK   21  A    between atoms: O_18  and  C_33
REMARK   22  A    between atoms: O_20  and  C_35
REMARK   23  A    between atoms: O_20  and  C_37
REMARK   24  A    between atoms: C_21  and  C_23
REMARK   25  A    between atoms: C_21  and  C_67
REMARK   26  A    between atoms: O_22  and  C_39
REMARK   27  A    between atoms: O_22  and  C_41
REMARK   28  A    between atoms: O_24  and  C_43
REMARK   29  A    between atoms: O_24  and  C_45
REMARK   30  A    between atoms: C_25  and  C_27
REMARK   31  A    between atoms: O_28  and  C_69
REMARK   32  A    between atoms: O_28  and  C_70
REMARK   33  A    between atoms: C_29  and  C_31
REMARK   34  A    between atoms: O_30  and  C_71
REMARK   35  A    between atoms: O_30  and  C_72
REMARK   36  A    between atoms: O_32  and  C_73
REMARK   37  A    between atoms: O_32  and  C_74
REMARK   38  A    between atoms: C_33  and  C_35
REMARK   39  A    between atoms: O_34  and  C_75
REMARK   40  A    between atoms: O_34  and  C_76
REMARK   41  A    between atoms: O_36  and  C_77
REMARK   42  A    between atoms: O_36  and  C_78
REMARK   43  A    between atoms: C_37  and  C_39
REMARK   44  A    between atoms: O_40  and  C_80
REMARK   45  A    between atoms: O_40  and  C_81
REMARK   46  A    between atoms: C_41  and  C_43
REMARK   47  A    between atoms: O_42  and  C_82
REMARK   48  A    between atoms: O_42  and  C_83
REMARK   49  A    between atoms: O_44  and  C_84
REMARK   50  A    between atoms: O_44  and  C_85
REMARK   51  A    between atoms: C_45  and  C_47
REMARK   52  A    between atoms: O_46  and  C_86
REMARK   53  A    between atoms: O_46  and  C_87
REMARK   54  A    between atoms: C_47  and  C_49
REMARK   55  A    between atoms: O_48  and  C_88
REMARK   56  A    between atoms: O_48  and  C_89
REMARK   57  A    between atoms: C_49  and  C_51
REMARK   58  A    between atoms: C_51  and  C_53
REMARK   59  A    between atoms: C_53  and  C_54
REMARK   60  A    between atoms: C_54  and  C_55
REMARK   61  A    between atoms: C_55  and  C_56
REMARK   62  A    between atoms: C_56  and  C_57
REMARK   63  A    between atoms: C_57  and  C_58
REMARK   64  A    between atoms: C_58  and  C_59
REMARK   65  A    between atoms: C_59  and  C_60
REMARK   66  A    between atoms: C_60  and  C_61
REMARK   67  A    between atoms: C_61  and  C_62
REMARK   68  A    between atoms: C_62  and  C_63
REMARK   69  A    between atoms: C_63  and  C_64
REMARK   70  A    between atoms: C_64  and  C_65
REMARK   71  A    between atoms: C_67  and  C_68
REMARK   72  A    between atoms: C_70  and  C_71
REMARK   73  A    between atoms: C_72  and  C_73
REMARK   74  A    between atoms: C_74  and  C_75
REMARK   75  A    between atoms: C_76  and  C_77
REMARK   76  A    between atoms: C_78  and  C_79
REMARK   77  A    between atoms: C_81  and  C_82
REMARK   78  A    between atoms: C_83  and  C_84
REMARK   79  A    between atoms: C_85  and  C_86
REMARK   80  A    between atoms: C_87  and  C_88
REMARK   81  A    between atoms: C_89  and  C_90
REMARK                            x       y       z     vdW  Elec       q    Type
REMARK                         _______ _______ _______ _____ _____    ______ ____
ROOT
ATOM      1  C   UNL     1     -12.607   4.339  18.460  0.00  0.00    +0.000 C 
ENDROOT
BRANCH   1   2
ATOM      2  C   UNL     1     -11.766   3.442  19.592  0.00  0.00    +0.000 C 
BRANCH   2   4
ATOM      3  O   UNL     1      -9.596   3.276  20.634  0.00  0.00    +0.000 OA
ATOM      4  C   UNL     1     -10.491   4.111  19.988  0.00  0.00    +0.000 C 
ATOM      5  C   UNL     1     -10.671   5.134  21.142  0.00  0.00    +0.000 C 
ATOM      6  C   UNL     1      -9.199   5.242  21.636  0.00  0.00    +0.000 C 
ATOM      7  C   UNL     1      -8.623   3.917  21.364  0.00  0.00    +0.000 C 
BRANCH   6   8
ATOM      8  O   UNL     1      -9.233   5.414  23.045  0.00  0.00    +0.000 OA
BRANCH   8   9
ATOM      9  C   UNL     1      -8.613   6.630  23.523  0.00  0.00    +0.000 C 
BRANCH   9  10
ATOM     10  C   UNL     1      -7.205   6.326  23.962  0.00  0.00    +0.000 C 
BRANCH  10  11
ATOM     11  O   UNL     1      -6.350   7.382  23.566  0.00  0.00    +0.000 OA
BRANCH  11  12
ATOM     12  C   UNL     1      -4.994   6.977  23.566  0.00  0.00    +0.000 C 
BRANCH  12  13
ATOM     13  C   UNL     1      -4.829   5.496  23.810  0.00  0.00    +0.000 C 
BRANCH  13  14
ATOM     14  O   UNL     1      -4.211   4.948  22.641  0.00  0.00    +0.000 OA
BRANCH  14  15
ATOM     15  C   UNL     1      -3.315   3.927  22.933  0.00  0.00    +0.000 C 
BRANCH  15  16
ATOM     16  C   UNL     1      -1.971   4.533  23.417  0.00  0.00    +0.000 C 
BRANCH  16  17
ATOM     17  O   UNL     1      -1.731   4.023  24.677  0.00  0.00    +0.000 OA
BRANCH  17  18
ATOM     18  C   UNL     1      -1.637   5.045  25.687  0.00  0.00    +0.000 C 
BRANCH  18  19
ATOM     19  C   UNL     1      -0.877   6.215  25.065  0.00  0.00    +0.000 C 
BRANCH  19  20
ATOM     20  O   UNL     1       0.475   5.965  25.049  0.00  0.00    +0.000 OA
BRANCH  20  21
ATOM     21  C   UNL     1       1.216   7.140  24.851  0.00  0.00    +0.000 C 
BRANCH  21  23
ATOM     22  O   UNL     1       0.725   9.458  25.076  0.00  0.00    +0.000 OA
ATOM     23  C   UNL     1       0.327   8.256  24.381  0.00  0.00    +0.000 C 
ENDBRANCH  21  23
ENDBRANCH  20  21
ENDBRANCH  19  20
ENDBRANCH  18  19
ENDBRANCH  17  18
ENDBRANCH  16  17
ENDBRANCH  15  16
ENDBRANCH  14  15
ENDBRANCH  13  14
ENDBRANCH  12  13
ENDBRANCH  11  12
ENDBRANCH  10  11
ENDBRANCH   9  10
ENDBRANCH   8   9
ENDBRANCH   6   8
BRANCH   5  24
ATOM     24  O   UNL     1     -11.127   6.369  20.639  0.00  0.00    +0.000 OA
BRANCH  24  25
ATOM     25  C   UNL     1     -11.962   7.073  21.541  0.00  0.00    +0.000 C 
BRANCH  25  26
ATOM     26  C   UNL     1     -11.449   8.469  21.826  0.00  0.00    +0.000 C 
BRANCH  26  27
ATOM     27  O   UNL     1     -12.243   9.032  22.849  0.00  0.00    +0.000 OA
BRANCH  27  28
ATOM     28  C   UNL     1     -13.628   8.774  22.684  0.00  0.00    +0.000 C 
BRANCH  28  29
ATOM     29  C   UNL     1     -14.490   9.650  23.568  0.00  0.00    +0.000 C 
BRANCH  29  30
ATOM     30  O   UNL     1     -15.684   8.977  23.904  0.00  0.00    +0.000 OA
BRANCH  30  31
ATOM     31  C   UNL     1     -16.598   9.772  24.670  0.00  0.00    +0.000 C 
BRANCH  31  32
ATOM     32  C   UNL     1     -17.426   8.875  25.587  0.00  0.00    +0.000 C 
BRANCH  32  33
ATOM     33  O   UNL     1     -18.753   9.341  25.730  0.00  0.00    +0.000 OA
BRANCH  33  34
ATOM     34  C   UNL     1     -19.399   8.834  26.875  0.00  0.00    +0.000 C 
BRANCH  34  35
ATOM     35  C   UNL     1     -18.415   8.074  27.792  0.00  0.00    +0.000 C 
BRANCH  35  36
ATOM     36  O   UNL     1     -19.123   7.570  28.891  0.00  0.00    +0.000 OA
BRANCH  36  37
ATOM     37  C   UNL     1     -18.336   7.702  30.062  0.00  0.00    +0.000 C 
BRANCH  37  39
ATOM     38  O   UNL     1     -20.208   9.054  30.705  0.00  0.00    +0.000 OA
ATOM     39  C   UNL     1     -18.805   8.863  30.889  0.00  0.00    +0.000 C 
ENDBRANCH  37  39
ENDBRANCH  36  37
ENDBRANCH  35  36
ENDBRANCH  34  35
ENDBRANCH  33  34
ENDBRANCH  32  33
ENDBRANCH  31  32
ENDBRANCH  30  31
ENDBRANCH  29  30
ENDBRANCH  28  29
ENDBRANCH  27  28
ENDBRANCH  26  27
ENDBRANCH  25  26
ENDBRANCH  24  25
ENDBRANCH   5  24
ENDBRANCH   2   4
ENDBRANCH   1   2
BRANCH   1  40
ATOM     40  O   UNL     1     -13.926   4.559  18.978  0.00  0.00    +0.000 OA
BRANCH  40  41
ATOM     41  C   UNL     1     -14.468   5.772  18.489  0.00  0.00    +0.000 C 
BRANCH  41  42
ATOM     42  C   UNL     1     -15.206   6.535  19.593  0.00  0.00    +0.000 C 
BRANCH  42  43
ATOM     43  O   UNL     1     -14.996   7.890  19.427  0.00  0.00    +0.000 OA
BRANCH  43  44
ATOM     44  C   UNL     1     -16.207   8.638  19.324  0.00  0.00    +0.000 C 
BRANCH  44  45
ATOM     45  C   UNL     1     -17.390   7.698  19.480  0.00  0.00    +0.000 C 
BRANCH  45  46
ATOM     46  O   UNL     1     -18.410   8.094  18.617  0.00  0.00    +0.000 OA
BRANCH  46  47
ATOM     47  C   UNL     1     -18.541   9.481  18.583  0.00  0.00    +0.000 C 
BRANCH  47  48
ATOM     48  C   UNL     1     -19.817   9.845  17.821  0.00  0.00    +0.000 C 
BRANCH  48  49
ATOM     49  O   UNL     1     -20.839  10.104  18.751  0.00  0.00    +0.000 OA
BRANCH  49  50
ATOM     50  C   UNL     1     -22.140   9.950  18.230  0.00  0.00    +0.000 C 
BRANCH  50  51
ATOM     51  C   UNL     1     -22.634   8.564  18.597  0.00  0.00    +0.000 C 
BRANCH  51  52
ATOM     52  O   UNL     1     -22.907   7.878  17.360  0.00  0.00    +0.000 OA
BRANCH  52  53
ATOM     53  C   UNL     1     -24.306   7.810  17.067  0.00  0.00    +0.000 C 
BRANCH  53  54
ATOM     54  C   UNL     1     -24.774   6.406  16.931  0.00  0.00    +0.000 C 
ATOM     55  O   UNL     1     -23.650   5.546  16.976  0.00  0.00    +0.000 OA
ENDBRANCH  53  54
ENDBRANCH  52  53
ENDBRANCH  51  52
ENDBRANCH  50  51
ENDBRANCH  49  50
ENDBRANCH  48  49
ENDBRANCH  47  48
ENDBRANCH  46  47
ENDBRANCH  45  46
ENDBRANCH  44  45
ENDBRANCH  43  44
ENDBRANCH  42  43
ENDBRANCH  41  42
ENDBRANCH  40  41
ENDBRANCH   1  40
BRANCH   1  56
ATOM     56  C   UNL     1     -12.627   3.540  17.194  0.00  0.00    +0.000 C 
BRANCH  56  57
ATOM     57  O   UNL     1     -11.461   3.818  16.539  0.00  0.00    +0.000 OA
BRANCH  57  58
ATOM     58  C   UNL     1     -11.727   3.882  15.108  0.00  0.00    +0.000 C 
BRANCH  58  59
ATOM     59  C   UNL     1     -10.426   3.795  14.336  0.00  0.00    +0.000 C 
BRANCH  59  60
ATOM     60  O   UNL     1     -10.263   2.482  13.862  0.00  0.00    +0.000 OA
BRANCH  60  61
ATOM     61  C   UNL     1      -9.340   2.422  12.803  0.00  0.00    +0.000 C 
BRANCH  61  62
ATOM     62  C   UNL     1      -9.076   3.860  12.338  0.00  0.00    +0.000 C 
BRANCH  62  63
ATOM     63  O   UNL     1      -8.621   3.823  10.972  0.00  0.00    +0.000 OA
BRANCH  63  64
ATOM     64  C   UNL     1      -9.056   4.978  10.245  0.00  0.00    +0.000 C 
BRANCH  64  65
ATOM     65  C   UNL     1      -9.392   4.605   8.813  0.00  0.00    +0.000 C 
BRANCH  65  66
ATOM     66  O   UNL     1      -9.373   5.805   8.030  0.00  0.00    +0.000 OA
BRANCH  66  67
ATOM     67  C   UNL     1     -10.445   5.837   7.059  0.00  0.00    +0.000 C 
BRANCH  67  68
ATOM     68  C   UNL     1     -11.107   4.428   7.068  0.00  0.00    +0.000 C 
BRANCH  68  69
ATOM     69  O   UNL     1     -12.415   4.510   6.511  0.00  0.00    +0.000 OA
BRANCH  69  70
ATOM     70  C   UNL     1     -13.154   3.293   6.650  0.00  0.00    +0.000 C 
BRANCH  70  71
ATOM     71  C   UNL     1     -14.281   3.256   5.668  0.00  0.00    +0.000 C 
BRANCH  71  72
ATOM     72  O   UNL     1     -15.095   4.383   5.846  0.00  0.00    +0.000 OA
BRANCH  72  74
ATOM     73  O   UNL     1     -16.887   3.863   4.652  0.00  0.00    +0.000 OA
ATOM     74  C   UNL     1     -16.422   4.075   5.706  0.00  0.00    +0.000 C 
BRANCH  74  75
ATOM     75  C   UNL     1     -17.255   4.061   6.947  0.00  0.00    +0.000 C 
BRANCH  75  76
ATOM     76  C   UNL     1     -16.371   4.142   8.228  0.00  0.00    +0.000 C 
BRANCH  76  77
ATOM     77  C   UNL     1     -16.333   5.594   8.628  0.00  0.00    +0.000 C 
BRANCH  77  78
ATOM     78  C   UNL     1     -16.377   5.705  10.124  0.00  0.00    +0.000 C 
BRANCH  78  79
ATOM     79  C   UNL     1     -16.004   4.392  10.744  0.00  0.00    +0.000 C 
BRANCH  79  80
ATOM     80  C   UNL     1     -16.266   4.472  12.238  0.00  0.00    +0.000 C 
BRANCH  80  81
ATOM     81  C   UNL     1     -15.388   3.458  12.910  0.00  0.00    +0.000 C 
BRANCH  81  82
ATOM     82  C   UNL     1     -14.678   2.608  11.894  0.00  0.00    +0.000 C 
BRANCH  82  83
ATOM     83  C   UNL     1     -13.510   1.921  12.526  0.00  0.00    +0.000 C 
BRANCH  83  84
ATOM     84  C   UNL     1     -14.027   0.663  13.212  0.00  0.00    +0.000 C 
BRANCH  84  85
ATOM     85  C   UNL     1     -13.524  -0.529  12.469  0.00  0.00    +0.000 C 
BRANCH  85  86
ATOM     86  C   UNL     1     -14.694  -1.124  11.676  0.00  0.00    +0.000 C 
BRANCH  86  87
ATOM     87  C   UNL     1     -14.367  -1.071  10.194  0.00  0.00    +0.000 C 
BRANCH  87  88
ATOM     88  C   UNL     1     -15.456  -0.255   9.527  0.00  0.00    +0.000 C 
BRANCH  88  89
ATOM     89  C   UNL     1     -16.676  -0.269  10.433  0.00  0.00    +0.000 C 
BRANCH  89  90
ATOM     90  C   UNL     1     -17.457   0.999  10.265  0.00  0.00    +0.000 C 
ATOM     91  C   UNL     1     -18.150   1.011   8.914  0.00  0.00    +0.000 C 
ENDBRANCH  89  90
ENDBRANCH  88  89
ENDBRANCH  87  88
ENDBRANCH  86  87
ENDBRANCH  85  86
ENDBRANCH  84  85
ENDBRANCH  83  84
ENDBRANCH  82  83
ENDBRANCH  81  82
ENDBRANCH  80  81
ENDBRANCH  79  80
ENDBRANCH  78  79
ENDBRANCH  77  78
ENDBRANCH  76  77
ENDBRANCH  75  76
ENDBRANCH  74  75
ENDBRANCH  72  74
ENDBRANCH  71  72
ENDBRANCH  70  71
ENDBRANCH  69  70
ENDBRANCH  68  69
ENDBRANCH  67  68
ENDBRANCH  66  67
ENDBRANCH  65  66
ENDBRANCH  64  65
ENDBRANCH  63  64
ENDBRANCH  62  63
ENDBRANCH  61  62
ENDBRANCH  60  61
ENDBRANCH  59  60
ENDBRANCH  58  59
ENDBRANCH  57  58
ENDBRANCH  56  57
ENDBRANCH   1  56
TORSDOF 81
BEGIN_RES LEU A  10
REMARK  2 active torsions:
REMARK  status: ('A' for Active; 'I' for Inactive)
REMARK    1  A    between atoms: CA   and  CB  
REMARK    2  A    between atoms: CB   and  CG  
ROOT
ATOM      1  CA  LEU A  10     -10.775  -4.871   5.898  1.00 25.14     0.177 C 
ENDROOT
BRANCH   1   2
ATOM      2  CB  LEU A  10     -12.191  -4.387   6.226  1.00 17.87     0.038 C 
BRANCH   2   3
ATOM      3  CG  LEU A  10     -12.460  -2.925   5.863  1.00 24.95    -0.020 C 
ATOM      4  CD2 LEU A  10     -13.627  -2.435   6.652  1.00 26.38     0.009 C 
ATOM      5  CD1 LEU A  10     -12.719  -2.773   4.374  1.00 28.12     0.009 C 
ENDBRANCH   2   3
ENDBRANCH   1   2
END_RES LEU A  10
BEGIN_RES CYS A  12
REMARK  2 active torsions:
REMARK  status: ('A' for Active; 'I' for Inactive)
REMARK    3  A    between atoms: CA   and  CB  
REMARK    4  A    between atoms: CB   and  SG  
ROOT
ATOM      6  CA  CYS A  12      -8.555   0.470   8.750  1.00 23.16     0.185 C 
ENDROOT
BRANCH   6   7
ATOM      7  CB  CYS A  12      -9.828   0.763   9.555  1.00 20.43     0.105 C 
BRANCH   7   8
ATOM      8  SG  CYS A  12     -11.385   0.776   8.614  1.00 24.64    -0.180 SA
ATOM      9  H04 CYS A  12     -11.267   1.602   7.566  1.00 24.64     0.101 HD
ENDBRANCH   7   8
ENDBRANCH   6   7
END_RES CYS A  12
BEGIN_RES GLN A  14
REMARK  3 active torsions:
REMARK  status: ('A' for Active; 'I' for Inactive)
REMARK    5  A    between atoms: CA   and  CB  
REMARK    6  A    between atoms: CB   and  CG  
REMARK    7  A    between atoms: CG   and  CD  
REMARK       I    between atoms: CD   and  NE2 
ROOT
ATOM     10  CA  GLN A  14      -4.645   5.402  11.377  1.00 10.43     0.177 C 
ENDROOT
BRANCH  10  11
ATOM     11  CB  GLN A  14      -5.541   5.549  12.608  1.00 14.45     0.044 C 
BRANCH  11  12
ATOM     12  CG  GLN A  14      -6.496   6.719  12.540  1.00 13.74     0.105 C 
BRANCH  12  13
ATOM     13  CD  GLN A  14      -5.924   7.967  13.169  1.00 16.29     0.215 C 
ATOM     14  NE2 GLN A  14      -6.389   8.290  14.357  1.00  8.57    -0.370 N 
ATOM     15  H06 GLN A  14      -6.043   9.114  14.827  1.00  8.57     0.159 HD
ATOM     16  H07 GLN A  14      -7.092   7.715  14.798  1.00  8.57     0.159 HD
ATOM     17  OE1 GLN A  14      -5.074   8.629  12.596  1.00 23.55    -0.274 OA
ENDBRANCH  12  13
ENDBRANCH  11  12
ENDBRANCH  10  11
END_RES GLN A  14
BEGIN_RES SER A  16
REMARK  2 active torsions:
REMARK  status: ('A' for Active; 'I' for Inactive)
REMARK    8  A    between atoms: CA   and  CB  
REMARK    9  A    between atoms: CB   and  OG  
ROOT
ATOM     18  CA  SER A  16      -1.305  10.019  14.282  1.00  2.34     0.200 C 
ENDROOT
BRANCH  18  19
ATOM     19  CB  SER A  16      -2.242   9.935  15.479  1.00  3.12     0.199 C 
BRANCH  19  20
ATOM     20  OG  SER A  16      -3.465   9.325  15.105  1.00  1.00    -0.398 OA
ATOM     21  H04 SER A  16      -3.362   8.371  15.110  1.00  1.00     0.209 HD
ENDBRANCH  19  20
ENDBRANCH  18  19
END_RES SER A  16
BEGIN_RES LEU A  32
REMARK  2 active torsions:
REMARK  status: ('A' for Active; 'I' for Inactive)
REMARK   10  A    between atoms: CA   and  CB  
REMARK   11  A    between atoms: CB   and  CG  
ROOT
ATOM     22  CA  LEU A  32     -10.272  -4.106   1.587  1.00 16.16     0.177 C 
ENDROOT
BRANCH  22  23
ATOM     23  CB  LEU A  32     -11.613  -3.858   0.880  1.00 12.35     0.038 C 
BRANCH  23  24
ATOM     24  CG  LEU A  32     -12.689  -4.873   1.317  1.00  9.77    -0.020 C 
ATOM     25  CD1 LEU A  32     -14.024  -4.520   0.705  1.00  4.35     0.009 C 
ATOM     26  CD2 LEU A  32     -12.301  -6.272   0.917  1.00 10.60     0.009 C 
ENDBRANCH  23  24
ENDBRANCH  22  23
END_RES LEU A  32
BEGIN_RES HIS A  38
REMARK  2 active torsions:
REMARK  status: ('A' for Active; 'I' for Inactive)
REMARK   12  A    between atoms: CA   and  CB  
REMARK   13  A    between atoms: CB   and  CG  
ROOT
ATOM     27  CA  HIS A  38     -10.959   4.941   1.621  1.00 16.94     0.182 C 
ENDROOT
BRANCH  27  28
ATOM     28  CB  HIS A  38     -11.810   4.840   2.881  1.00 15.47     0.095 C 
BRANCH  28  29
ATOM     29  CG  HIS A  38     -13.273   5.028   2.638  1.00 18.62     0.053 A 
ATOM     30  CD2 HIS A  38     -14.222   4.159   2.217  1.00 15.06     0.116 A 
ATOM     31  NE2 HIS A  38     -15.411   4.842   2.194  1.00 18.12    -0.359 N 
ATOM     32  CE1 HIS A  38     -15.201   6.085   2.585  1.00 14.78     0.207 A 
ATOM     33  H06 HIS A  38     -16.304   4.457   1.921  1.00 18.12     0.166 HD
ATOM     34  ND1 HIS A  38     -13.919   6.224   2.859  1.00 16.58    -0.247 NA
ENDBRANCH  28  29
ENDBRANCH  27  28
END_RES HIS A  38
BEGIN_RES TRP A  63
REMARK  2 active torsions:
REMARK  status: ('A' for Active; 'I' for Inactive)
REMARK   14  A    between atoms: CA   and  CB  
REMARK   15  A    between atoms: CB   and  CG  
ROOT
ATOM     35  CA  TRP A  63     -22.437   6.257   6.543  1.00 27.04     0.181 C 
ENDROOT
BRANCH  35  36
ATOM     36  CB  TRP A  63     -22.360   6.642   5.068  1.00 31.37     0.075 C 
BRANCH  36  37
ATOM     37  CG  TRP A  63     -20.959   6.657   4.494  1.00 34.37    -0.028 A 
ATOM     38  CD2 TRP A  63     -20.304   7.747   3.832  1.00 33.79    -0.002 A 
ATOM     39  CE3 TRP A  63     -20.695   9.036   3.462  1.00 32.99     0.014 A 
ATOM     40  CE2 TRP A  63     -18.989   7.326   3.534  1.00 35.84     0.042 A 
ATOM     41  CZ3 TRP A  63     -19.777   9.852   2.816  1.00 32.93     0.001 A 
ATOM     42  CH2 TRP A  63     -18.477   9.403   2.533  1.00 39.24     0.002 A 
ATOM     43  CZ2 TRP A  63     -18.065   8.146   2.885  1.00 37.99     0.030 A 
ATOM     44  NE1 TRP A  63     -18.859   6.044   3.993  1.00 37.98    -0.365 N 
ATOM     45  H06 TRP A  63     -18.026   5.477   3.923  1.00 37.98     0.165 HD
ATOM     46  CD1 TRP A  63     -20.045   5.652   4.564  1.00 38.16     0.096 A 
ENDBRANCH  36  37
ENDBRANCH  35  36
END_RES TRP A  63
BEGIN_RES LEU A  66
REMARK  2 active torsions:
REMARK  status: ('A' for Active; 'I' for Inactive)
REMARK   16  A    between atoms: CA   and  CB  
REMARK   17  A    between atoms: CB   and  CG  
ROOT
ATOM     47  CA  LEU A  66     -20.004   6.489  11.120  1.00 10.90     0.177 C 
ENDROOT
BRANCH  47  48
ATOM     48  CB  LEU A  66     -19.626   5.453  10.069  1.00 13.57     0.038 C 
BRANCH  48  49
ATOM     49  CG  LEU A  66     -19.633   3.986  10.498  1.00  8.73    -0.020 C 
ATOM     50  CD1 LEU A  66     -19.738   3.872  11.997  1.00 14.23     0.009 C 
ATOM     51  CD2 LEU A  66     -20.807   3.303   9.845  1.00  1.92     0.009 C 
ENDBRANCH  48  49
ENDBRANCH  47  48
END_RES LEU A  66
BEGIN_RES PHE A  70
REMARK  2 active torsions:
REMARK  status: ('A' for Active; 'I' for Inactive)
REMARK   18  A    between atoms: CA   and  CB  
REMARK   19  A    between atoms: CB   and  CG  
ROOT
ATOM     52  CA  PHE A  70     -14.974   9.434  13.165  1.00  8.78     0.180 C 
ENDROOT
BRANCH  52  53
ATOM     53  CB  PHE A  70     -14.707   9.132  11.681  1.00  6.33     0.073 C 
BRANCH  53  54
ATOM     54  CG  PHE A  70     -13.901   7.880  11.461  1.00  3.42    -0.056 A 
ATOM     55  CD1 PHE A  70     -13.568   7.460  10.182  1.00 13.88     0.007 A 
ATOM     56  CE1 PHE A  70     -12.856   6.265   9.981  1.00 12.71     0.001 A 
ATOM     57  CZ  PHE A  70     -12.473   5.484  11.072  1.00  4.21     0.000 A 
ATOM     58  CE2 PHE A  70     -12.797   5.894  12.352  1.00  2.83     0.001 A 
ATOM     59  CD2 PHE A  70     -13.510   7.090  12.542  1.00  1.00     0.007 A 
ENDBRANCH  53  54
ENDBRANCH  52  53
END_RES PHE A  70
BEGIN_RES TYR A  73
REMARK  3 active torsions:
REMARK  status: ('A' for Active; 'I' for Inactive)
REMARK   20  A    between atoms: CA   and  CB  
REMARK   21  A    between atoms: CB   and  CG  
REMARK   22  A    between atoms: CZ   and  OH  
ROOT
ATOM     60  CA  TYR A  73     -13.212  10.166  17.260  1.00 12.17     0.180 C 
ENDROOT
BRANCH  60  61
ATOM     61  CB  TYR A  73     -13.301   8.846  16.517  1.00 12.84     0.073 C 
BRANCH  61  62
ATOM     62  CG  TYR A  73     -11.979   8.182  16.346  1.00 15.89    -0.056 A 
ATOM     63  CD1 TYR A  73     -11.367   8.123  15.114  1.00 16.00     0.010 A 
ATOM     64  CE1 TYR A  73     -10.144   7.475  14.945  1.00 13.55     0.037 A 
ATOM     65  CZ  TYR A  73      -9.537   6.882  16.034  1.00 18.13     0.065 A 
ATOM     66  CE2 TYR A  73     -10.127   6.927  17.276  1.00 15.89     0.037 A 
ATOM     67  CD2 TYR A  73     -11.345   7.578  17.426  1.00 21.86     0.010 A 
BRANCH  65  68
ATOM     68  OH  TYR A  73      -8.330   6.243  15.893  1.00 12.12    -0.361 OA
ATOM     69  H08 TYR A  73      -7.617   6.872  16.030  1.00 12.12     0.217 HD
ENDBRANCH  65  68
ENDBRANCH  61  62
ENDBRANCH  60  61
END_RES TYR A  73
BEGIN_RES PHE A  77
REMARK  2 active torsions:
REMARK  status: ('A' for Active; 'I' for Inactive)
REMARK   23  A    between atoms: CA   and  CB  
REMARK   24  A    between atoms: CB   and  CG  
ROOT
ATOM     70  CA  PHE A  77      -8.400  10.581  20.110  1.00 17.17     0.180 C 
ENDROOT
BRANCH  70  71
ATOM     71  CB  PHE A  77      -8.228   9.750  18.851  1.00 10.44     0.073 C 
BRANCH  71  72
ATOM     72  CG  PHE A  77      -7.164   8.704  18.960  1.00  6.07    -0.056 A 
ATOM     73  CD2 PHE A  77      -7.209   7.761  19.961  1.00  9.61     0.007 A 
ATOM     74  CE2 PHE A  77      -6.226   6.784  20.069  1.00  1.00     0.001 A 
ATOM     75  CZ  PHE A  77      -5.183   6.750  19.159  1.00  1.92     0.000 A 
ATOM     76  CE1 PHE A  77      -5.124   7.685  18.150  1.00  9.25     0.001 A 
ATOM     77  CD1 PHE A  77      -6.116   8.660  18.055  1.00  9.63     0.007 A 
ENDBRANCH  71  72
ENDBRANCH  70  71
END_RES PHE A  77
BEGIN_RES LEU A  96
REMARK  2 active torsions:
REMARK  status: ('A' for Active; 'I' for Inactive)
REMARK   25  A    between atoms: CA   and  CB  
REMARK   26  A    between atoms: CB   and  CG  
ROOT
ATOM     78  CA  LEU A  96       0.717   6.481  17.359  1.00 16.08     0.177 C 
ENDROOT
BRANCH  78  79
ATOM     79  CB  LEU A  96      -0.370   7.101  18.230  1.00 18.83     0.038 C 
BRANCH  79  80
ATOM     80  CG  LEU A  96      -0.214   6.832  19.727  1.00 19.03    -0.020 C 
ATOM     81  CD1 LEU A  96       0.501   8.003  20.360  1.00 28.17     0.009 C 
ATOM     82  CD2 LEU A  96      -1.569   6.689  20.380  1.00 22.01     0.009 C 
ENDBRANCH  79  80
ENDBRANCH  78  79
END_RES LEU A  96
BEGIN_RES VAL A  98
REMARK  1 active torsions:
REMARK  status: ('A' for Active; 'I' for Inactive)
REMARK   27  A    between atoms: CA   and  CB  
ROOT
ATOM     83  CA  VAL A  98      -3.928   2.082  14.897  1.00 19.83     0.180 C 
ENDROOT
BRANCH  83  84
ATOM     84  CB  VAL A  98      -5.203   2.807  15.281  1.00 17.87     0.009 C 
ATOM     85  CG2 VAL A  98      -5.135   3.245  16.721  1.00 29.90     0.012 C 
ATOM     86  CG1 VAL A  98      -6.392   1.897  15.052  1.00 14.79     0.012 C 
ENDBRANCH  83  84
END_RES VAL A  98
BEGIN_RES ASN A 112
REMARK  2 active torsions:
REMARK  status: ('A' for Active; 'I' for Inactive)
REMARK   28  A    between atoms: CA   and  CB  
REMARK   29  A    between atoms: CB   and  CG  
REMARK       I    between atoms: CG   and  ND2 
ROOT
ATOM     87  CA  ASN A 112     -11.790  -8.793  14.069  1.00 37.70     0.185 C 
ENDROOT
BRANCH  87  88
ATOM     88  CB  ASN A 112     -12.992  -7.945  14.465  1.00 26.24     0.137 C 
BRANCH  88  89
ATOM     89  CG  ASN A 112     -13.833  -8.580  15.549  1.00 21.77     0.217 C 
ATOM     90  ND2 ASN A 112     -14.993  -9.109  15.160  1.00  9.31    -0.370 N 
ATOM     91  H04 ASN A 112     -15.601  -9.546  15.838  1.00  9.31     0.159 HD
ATOM     92  H05 ASN A 112     -15.263  -9.074  14.187  1.00  9.31     0.159 HD
ATOM     93  OD1 ASN A 112     -13.452  -8.591  16.726  1.00 21.61    -0.274 OA
ENDBRANCH  88  89
ENDBRANCH  87  88
END_RES ASN A 112
BEGIN_RES PHE A 114
REMARK  2 active torsions:
REMARK  status: ('A' for Active; 'I' for Inactive)
REMARK   30  A    between atoms: CA   and  CB  
REMARK   31  A    between atoms: CB   and  CG  
ROOT
ATOM     94  CA  PHE A 114      -7.754  -3.619  17.012  1.00 26.06     0.180 C 
ENDROOT
BRANCH  94  95
ATOM     95  CB  PHE A 114      -8.890  -3.080  17.867  1.00 19.95     0.073 C 
BRANCH  95  96
ATOM     96  CG  PHE A 114      -9.144  -1.622  17.663  1.00 17.65    -0.056 A 
ATOM     97  CD1 PHE A 114      -8.092  -0.710  17.649  1.00 13.01     0.007 A 
ATOM     98  CE1 PHE A 114      -8.330   0.649  17.489  1.00  6.74     0.001 A 
ATOM     99  CZ  PHE A 114      -9.632   1.116  17.337  1.00  6.27     0.000 A 
ATOM    100  CE2 PHE A 114     -10.687   0.218  17.348  1.00 17.36     0.001 A 
ATOM    101  CD2 PHE A 114     -10.441  -1.150  17.512  1.00 18.39     0.007 A 
ENDBRANCH  95  96
ENDBRANCH  94  95
END_RES PHE A 114
BEGIN_RES VAL A 116
REMARK  1 active torsions:
REMARK  status: ('A' for Active; 'I' for Inactive)
REMARK   32  A    between atoms: CA   and  CB  
ROOT
ATOM    102  CA  VAL A 116      -2.467   0.283  18.565  1.00 13.48     0.180 C 
ENDROOT
BRANCH 102 103
ATOM    103  CB  VAL A 116      -3.101   1.238  19.599  1.00 20.86     0.009 C 
ATOM    104  CG1 VAL A 116      -2.685   2.678  19.288  1.00 25.01     0.012 C 
ATOM    105  CG2 VAL A 116      -4.604   1.086  19.622  1.00 25.34     0.012 C 
ENDBRANCH 102 103
END_RES VAL A 116
BEGIN_RES ILE A 123
REMARK  2 active torsions:
REMARK  status: ('A' for Active; 'I' for Inactive)
REMARK   33  A    between atoms: CA   and  CB  
REMARK   34  A    between atoms: CB   and  CG1 
ROOT
ATOM    106  CA  ILE A 123       1.557  -1.626  23.222  1.00 15.07     0.180 C 
ENDROOT
BRANCH 106 107
ATOM    107  CB  ILE A 123       1.697  -0.112  23.461  1.00 14.41     0.013 C 
ATOM    108  CG2 ILE A 123       3.109   0.211  23.917  1.00 18.35     0.012 C 
BRANCH 107 109
ATOM    109  CG1 ILE A 123       1.365   0.659  22.186  1.00 15.23     0.002 C 
ATOM    110  CD1 ILE A 123       0.204   1.612  22.339  1.00 14.67     0.005 C 
ENDBRANCH 107 109
ENDBRANCH 106 107
END_RES ILE A 123
BEGIN_RES LEU A 124
REMARK  2 active torsions:
REMARK  status: ('A' for Active; 'I' for Inactive)
REMARK   35  A    between atoms: CA   and  CB  
REMARK   36  A    between atoms: CB   and  CG  
ROOT
ATOM    111  CA  LEU A 124      -2.057  -2.686  23.524  1.00 11.86     0.177 C 
ENDROOT
BRANCH 111 112
ATOM    112  CB  LEU A 124      -2.698  -1.652  24.429  1.00 14.60     0.038 C 
BRANCH 112 113
ATOM    113  CG  LEU A 124      -2.614  -0.250  23.844  1.00 16.19    -0.020 C 
ATOM    114  CD1 LEU A 124      -4.010   0.170  23.346  1.00 22.07     0.009 C 
ATOM    115  CD2 LEU A 124      -2.080   0.699  24.888  1.00  9.12     0.009 C 
ENDBRANCH 112 113
ENDBRANCH 111 112
END_RES LEU A 124
BEGIN_RES PHE A 126
REMARK  2 active torsions:
REMARK  status: ('A' for Active; 'I' for Inactive)
REMARK   37  A    between atoms: CA   and  CB  
REMARK   38  A    between atoms: CB   and  CG  
ROOT
ATOM    116  CA  PHE A 126      -8.784  -4.792  22.233  1.00 23.15     0.180 C 
ENDROOT
BRANCH 116 117
ATOM    117  CB  PHE A 126      -9.823  -4.011  21.461  1.00 20.65     0.073 C 
BRANCH 117 118
ATOM    118  CG  PHE A 126     -10.954  -3.550  22.295  1.00 23.65    -0.056 A 
ATOM    119  CD2 PHE A 126     -12.218  -4.087  22.128  1.00 36.63     0.007 A 
ATOM    120  CE2 PHE A 126     -13.289  -3.650  22.920  1.00 36.27     0.001 A 
ATOM    121  CZ  PHE A 126     -13.085  -2.671  23.881  1.00 18.06     0.000 A 
ATOM    122  CE1 PHE A 126     -11.824  -2.135  24.051  1.00  5.50     0.001 A 
ATOM    123  CD1 PHE A 126     -10.763  -2.577  23.261  1.00 15.29     0.007 A 
ENDBRANCH 117 118
ENDBRANCH 116 117
END_RES PHE A 126
BEGIN_RES TRP A 131
REMARK  2 active torsions:
REMARK  status: ('A' for Active; 'I' for Inactive)
REMARK   39  A    between atoms: CA   and  CB  
REMARK   40  A    between atoms: CB   and  CG  
ROOT
ATOM    124  CA  TRP A 131      -8.096  -3.335  26.542  1.00 14.52     0.181 C 
ENDROOT
BRANCH 124 125
ATOM    125  CB  TRP A 131      -7.651  -1.877  26.607  1.00 13.06     0.075 C 
BRANCH 125 126
ATOM    126  CG  TRP A 131      -8.042  -1.054  25.400  1.00 16.97    -0.028 A 
ATOM    127  CD2 TRP A 131      -9.129  -0.128  25.316  1.00 11.34    -0.002 A 
ATOM    128  CE2 TRP A 131      -9.123   0.416  24.017  1.00  5.87     0.042 A 
ATOM    129  CE3 TRP A 131     -10.111   0.293  26.220  1.00  3.80     0.014 A 
ATOM    130  CZ2 TRP A 131     -10.059   1.363  23.599  1.00  1.35     0.030 A 
ATOM    131  NE1 TRP A 131      -8.080  -0.153  23.338  1.00 13.90    -0.365 N 
ATOM    132  CH2 TRP A 131     -11.010   1.759  24.506  1.00  1.00     0.002 A 
ATOM    133  CZ3 TRP A 131     -11.043   1.230  25.810  1.00  1.00     0.001 A 
ATOM    134  CD1 TRP A 131      -7.435  -1.035  24.174  1.00 17.22     0.096 A 
ATOM    135  H07 TRP A 131      -7.826   0.042  22.381  1.00 13.90     0.165 HD
ENDBRANCH 125 126
ENDBRANCH 124 125
END_RES TRP A 131
BEGIN_RES LEU A 148
REMARK  2 active torsions:
REMARK  status: ('A' for Active; 'I' for Inactive)
REMARK   41  A    between atoms: CA   and  CB  
REMARK   42  A    between atoms: CB   and  CG  
ROOT
ATOM    136  CA  LEU A 148      -9.018   3.259  29.295  1.00 16.99     0.177 C 
ENDROOT
BRANCH 136 137
ATOM    137  CB  LEU A 148      -8.166   2.574  28.236  1.00  6.39     0.038 C 
BRANCH 137 138
ATOM    138  CG  LEU A 148      -7.592   3.353  27.070  1.00  1.00    -0.020 C 
ATOM    139  CD2 LEU A 148      -8.695   3.971  26.262  1.00  1.00     0.009 C 
ATOM    140  CD1 LEU A 148      -6.775   2.399  26.217  1.00  2.71     0.009 C 
ENDBRANCH 137 138
ENDBRANCH 136 137
END_RES LEU A 148
BEGIN_RES THR A 154
REMARK  2 active torsions:
REMARK  status: ('A' for Active; 'I' for Inactive)
REMARK   43  A    between atoms: CA   and  CB  
REMARK   44  A    between atoms: CB   and  OG1 
ROOT
ATOM    141  CA  THR A 154     -15.990   3.959  24.426  1.00 20.45     0.205 C 
ENDROOT
BRANCH 141 142
ATOM    142  CB  THR A 154     -14.777   4.829  24.694  1.00 16.79     0.146 C 
ATOM    143  CG2 THR A 154     -13.678   4.517  23.697  1.00 20.24     0.042 C 
BRANCH 142 144
ATOM    144  OG1 THR A 154     -15.152   6.205  24.553  1.00 18.84    -0.393 OA
ATOM    145  H06 THR A 154     -14.697   6.586  23.799  1.00 18.84     0.210 HD
ENDBRANCH 142 144
ENDBRANCH 141 142
END_RES THR A 154
BEGIN_RES VAL A 158
REMARK  1 active torsions:
REMARK  status: ('A' for Active; 'I' for Inactive)
REMARK   45  A    between atoms: CA   and  CB  
ROOT
ATOM    146  CA  VAL A 158     -15.487  -0.189  19.892  1.00 15.49     0.180 C 
ENDROOT
BRANCH 146 147
ATOM    147  CB  VAL A 158     -14.291  -0.273  20.822  1.00  6.52     0.009 C 
ATOM    148  CG1 VAL A 158     -13.208  -1.145  20.230  1.00  1.00     0.012 C 
ATOM    149  CG2 VAL A 158     -13.778   1.112  21.071  1.00  5.99     0.012 C 
ENDBRANCH 146 147
END_RES VAL A 158
BEGIN_RES LEU A 161
REMARK  2 active torsions:
REMARK  status: ('A' for Active; 'I' for Inactive)
REMARK   46  A    between atoms: CA   and  CB  
REMARK   47  A    between atoms: CB   and  CG  
ROOT
ATOM    150  CA  LEU A 161     -18.031  -1.858  15.935  1.00 13.31     0.177 C 
ENDROOT
BRANCH 150 151
ATOM    151  CB  LEU A 161     -17.046  -0.706  16.001  1.00 14.13     0.038 C 
BRANCH 151 152
ATOM    152  CG  LEU A 161     -17.534   0.631  15.457  1.00 19.39    -0.020 C 
ATOM    153  CD2 LEU A 161     -17.603   0.588  13.950  1.00 27.75     0.009 C 
ATOM    154  CD1 LEU A 161     -16.585   1.712  15.900  1.00 18.59     0.009 C 
ENDBRANCH 151 152
ENDBRANCH 150 151
END_RES LEU A 161
BEGIN_RES GLN A 168
REMARK  3 active torsions:
REMARK  status: ('A' for Active; 'I' for Inactive)
REMARK   48  A    between atoms: CA   and  CB  
REMARK   49  A    between atoms: CB   and  CG  
REMARK   50  A    between atoms: CG   and  CD  
REMARK       I    between atoms: CD   and  NE2 
ROOT
ATOM    155  CA  GLN A 168     -22.035  -6.020   8.155  1.00 30.94     0.177 C 
ENDROOT
BRANCH 155 156
ATOM    156  CB  GLN A 168     -23.054  -5.218   8.946  1.00 41.76     0.044 C 
BRANCH 156 157
ATOM    157  CG  GLN A 168     -24.457  -5.758   8.883  1.00 61.20     0.105 C 
BRANCH 157 158
ATOM    158  CD  GLN A 168     -24.508  -7.128   8.237  1.00 75.49     0.215 C 
ATOM    159  NE2 GLN A 168     -24.461  -8.173   9.064  1.00 85.00    -0.370 N 
ATOM    160  H06 GLN A 168     -24.488  -9.113   8.694  1.00 85.00     0.159 HD
ATOM    161  H07 GLN A 168     -24.397  -8.025  10.062  1.00 85.00     0.159 HD
ATOM    162  OE1 GLN A 168     -24.582  -7.251   7.006  1.00 73.64    -0.274 OA
ENDBRANCH 157 158
ENDBRANCH 156 157
ENDBRANCH 155 156
END_RES GLN A 168
ENDMDL
MODEL 6
REMARK VINA RESULT:      -6.7      1.847      7.806
REMARK  Name = human_CD1d_tween80_pred.rank_0
REMARK  81 active torsions:
REMARK  status: ('A' for Active; 'I' for Inactive)
REMARK    1  A    between atoms: C_1  and  C_3
REMARK    2  A    between atoms: C_3  and  O_4
REMARK    3  A    between atoms: O_4  and  C_5
REMARK    4  A    between atoms: C_5  and  C_7
REMARK    5  A    between atoms: O_6  and  C_7
REMARK    6  A    between atoms: O_6  and  C_9
REMARK    7  A    between atoms: O_8  and  C_11
REMARK    8  A    between atoms: O_8  and  C_13
REMARK    9  A    between atoms: C_9  and  C_11
REMARK   10  A    between atoms: O_10  and  C_15
REMARK   11  A    between atoms: O_10  and  C_17
REMARK   12  A    between atoms: O_12  and  C_19
REMARK   13  A    between atoms: O_12  and  C_21
REMARK   14  A    between atoms: C_13  and  C_15
REMARK   15  A    between atoms: O_14  and  C_23
REMARK   16  A    between atoms: O_14  and  C_25
REMARK   17  A    between atoms: O_16  and  C_27
REMARK   18  A    between atoms: O_16  and  C_29
REMARK   19  A    between atoms: C_17  and  C_19
REMARK   20  A    between atoms: O_18  and  C_31
REMARK   21  A    between atoms: O_18  and  C_33
REMARK   22  A    between atoms: O_20  and  C_35
REMARK   23  A    between atoms: O_20  and  C_37
REMARK   24  A    between atoms: C_21  and  C_23
REMARK   25  A    between atoms: C_21  and  C_67
REMARK   26  A    between atoms: O_22  and  C_39
REMARK   27  A    between atoms: O_22  and  C_41
REMARK   28  A    between atoms: O_24  and  C_43
REMARK   29  A    between atoms: O_24  and  C_45
REMARK   30  A    between atoms: C_25  and  C_27
REMARK   31  A    between atoms: O_28  and  C_69
REMARK   32  A    between atoms: O_28  and  C_70
REMARK   33  A    between atoms: C_29  and  C_31
REMARK   34  A    between atoms: O_30  and  C_71
REMARK   35  A    between atoms: O_30  and  C_72
REMARK   36  A    between atoms: O_32  and  C_73
REMARK   37  A    between atoms: O_32  and  C_74
REMARK   38  A    between atoms: C_33  and  C_35
REMARK   39  A    between atoms: O_34  and  C_75
REMARK   40  A    between atoms: O_34  and  C_76
REMARK   41  A    between atoms: O_36  and  C_77
REMARK   42  A    between atoms: O_36  and  C_78
REMARK   43  A    between atoms: C_37  and  C_39
REMARK   44  A    between atoms: O_40  and  C_80
REMARK   45  A    between atoms: O_40  and  C_81
REMARK   46  A    between atoms: C_41  and  C_43
REMARK   47  A    between atoms: O_42  and  C_82
REMARK   48  A    between atoms: O_42  and  C_83
REMARK   49  A    between atoms: O_44  and  C_84
REMARK   50  A    between atoms: O_44  and  C_85
REMARK   51  A    between atoms: C_45  and  C_47
REMARK   52  A    between atoms: O_46  and  C_86
REMARK   53  A    between atoms: O_46  and  C_87
REMARK   54  A    between atoms: C_47  and  C_49
REMARK   55  A    between atoms: O_48  and  C_88
REMARK   56  A    between atoms: O_48  and  C_89
REMARK   57  A    between atoms: C_49  and  C_51
REMARK   58  A    between atoms: C_51  and  C_53
REMARK   59  A    between atoms: C_53  and  C_54
REMARK   60  A    between atoms: C_54  and  C_55
REMARK   61  A    between atoms: C_55  and  C_56
REMARK   62  A    between atoms: C_56  and  C_57
REMARK   63  A    between atoms: C_57  and  C_58
REMARK   64  A    between atoms: C_58  and  C_59
REMARK   65  A    between atoms: C_59  and  C_60
REMARK   66  A    between atoms: C_60  and  C_61
REMARK   67  A    between atoms: C_61  and  C_62
REMARK   68  A    between atoms: C_62  and  C_63
REMARK   69  A    between atoms: C_63  and  C_64
REMARK   70  A    between atoms: C_64  and  C_65
REMARK   71  A    between atoms: C_67  and  C_68
REMARK   72  A    between atoms: C_70  and  C_71
REMARK   73  A    between atoms: C_72  and  C_73
REMARK   74  A    between atoms: C_74  and  C_75
REMARK   75  A    between atoms: C_76  and  C_77
REMARK   76  A    between atoms: C_78  and  C_79
REMARK   77  A    between atoms: C_81  and  C_82
REMARK   78  A    between atoms: C_83  and  C_84
REMARK   79  A    between atoms: C_85  and  C_86
REMARK   80  A    between atoms: C_87  and  C_88
REMARK   81  A    between atoms: C_89  and  C_90
REMARK                            x       y       z     vdW  Elec       q    Type
REMARK                         _______ _______ _______ _____ _____    ______ ____
ROOT
ATOM      1  C   UNL     1      -8.395   5.523  19.033  0.00  0.00    +0.000 C 
ENDROOT
BRANCH   1   2
ATOM      2  C   UNL     1      -9.728   6.527  19.119  0.00  0.00    +0.000 C 
BRANCH   2   4
ATOM      3  O   UNL     1     -11.801   6.472  20.353  0.00  0.00    +0.000 OA
ATOM      4  C   UNL     1     -10.421   6.412  20.437  0.00  0.00    +0.000 C 
ATOM      5  C   UNL     1     -10.225   7.660  21.340  0.00  0.00    +0.000 C 
ATOM      6  C   UNL     1     -11.414   7.466  22.326  0.00  0.00    +0.000 C 
ATOM      7  C   UNL     1     -12.443   6.783  21.529  0.00  0.00    +0.000 C 
BRANCH   6   8
ATOM      8  O   UNL     1     -11.912   8.754  22.655  0.00  0.00    +0.000 OA
BRANCH   8   9
ATOM      9  C   UNL     1     -13.340   8.815  22.876  0.00  0.00    +0.000 C 
BRANCH   9  10
ATOM     10  C   UNL     1     -13.602   9.028  24.343  0.00  0.00    +0.000 C 
BRANCH  10  11
ATOM     11  O   UNL     1     -14.944   8.688  24.636  0.00  0.00    +0.000 OA
BRANCH  11  12
ATOM     12  C   UNL     1     -15.798   8.966  23.543  0.00  0.00    +0.000 C 
BRANCH  12  13
ATOM     13  C   UNL     1     -17.120   9.557  23.973  0.00  0.00    +0.000 C 
BRANCH  13  14
ATOM     14  O   UNL     1     -17.434  10.597  23.041  0.00  0.00    +0.000 OA
BRANCH  14  15
ATOM     15  C   UNL     1     -16.935  10.349  21.768  0.00  0.00    +0.000 C 
BRANCH  15  16
ATOM     16  C   UNL     1     -18.110  10.142  20.775  0.00  0.00    +0.000 C 
BRANCH  16  17
ATOM     17  O   UNL     1     -17.833   8.997  20.057  0.00  0.00    +0.000 OA
BRANCH  17  18
ATOM     18  C   UNL     1     -18.124   9.131  18.654  0.00  0.00    +0.000 C 
BRANCH  18  19
ATOM     19  C   UNL     1     -19.441   8.398  18.402  0.00  0.00    +0.000 C 
BRANCH  19  20
ATOM     20  O   UNL     1     -20.311   9.189  17.688  0.00  0.00    +0.000 OA
BRANCH  20  21
ATOM     21  C   UNL     1     -21.040  10.044  18.527  0.00  0.00    +0.000 C 
BRANCH  21  23
ATOM     22  O   UNL     1     -23.268  10.324  17.737  0.00  0.00    +0.000 OA
ATOM     23  C   UNL     1     -22.459   9.570  18.667  0.00  0.00    +0.000 C 
ENDBRANCH  21  23
ENDBRANCH  20  21
ENDBRANCH  19  20
ENDBRANCH  18  19
ENDBRANCH  17  18
ENDBRANCH  16  17
ENDBRANCH  15  16
ENDBRANCH  14  15
ENDBRANCH  13  14
ENDBRANCH  12  13
ENDBRANCH  11  12
ENDBRANCH  10  11
ENDBRANCH   9  10
ENDBRANCH   8   9
ENDBRANCH   6   8
BRANCH   5  24
ATOM     24  O   UNL     1      -8.991   7.590  22.017  0.00  0.00    +0.000 OA
BRANCH  24  25
ATOM     25  C   UNL     1      -8.989   6.668  23.093  0.00  0.00    +0.000 C 
BRANCH  25  26
ATOM     26  C   UNL     1      -7.829   6.898  24.039  0.00  0.00    +0.000 C 
BRANCH  26  27
ATOM     27  O   UNL     1      -6.741   7.401  23.293  0.00  0.00    +0.000 OA
BRANCH  27  28
ATOM     28  C   UNL     1      -5.489   6.896  23.727  0.00  0.00    +0.000 C 
BRANCH  28  29
ATOM     29  C   UNL     1      -5.592   5.494  24.288  0.00  0.00    +0.000 C 
BRANCH  29  30
ATOM     30  O   UNL     1      -4.625   4.658  23.689  0.00  0.00    +0.000 OA
BRANCH  30  31
ATOM     31  C   UNL     1      -3.377   5.313  23.429  0.00  0.00    +0.000 C 
BRANCH  31  32
ATOM     32  C   UNL     1      -2.543   5.370  24.706  0.00  0.00    +0.000 C 
BRANCH  32  33
ATOM     33  O   UNL     1      -1.774   4.199  24.890  0.00  0.00    +0.000 OA
BRANCH  33  34
ATOM     34  C   UNL     1      -0.392   4.407  24.706  0.00  0.00    +0.000 C 
BRANCH  34  35
ATOM     35  C   UNL     1       0.040   5.807  25.196  0.00  0.00    +0.000 C 
BRANCH  35  36
ATOM     36  O   UNL     1       1.340   6.061  24.736  0.00  0.00    +0.000 OA
BRANCH  36  37
ATOM     37  C   UNL     1       1.534   7.460  24.620  0.00  0.00    +0.000 C 
BRANCH  37  39
ATOM     38  O   UNL     1       0.414   9.535  25.054  0.00  0.00    +0.000 OA
ATOM     39  C   UNL     1       0.219   8.183  24.639  0.00  0.00    +0.000 C 
ENDBRANCH  37  39
ENDBRANCH  36  37
ENDBRANCH  35  36
ENDBRANCH  34  35
ENDBRANCH  33  34
ENDBRANCH  32  33
ENDBRANCH  31  32
ENDBRANCH  30  31
ENDBRANCH  29  30
ENDBRANCH  28  29
ENDBRANCH  27  28
ENDBRANCH  26  27
ENDBRANCH  25  26
ENDBRANCH  24  25
ENDBRANCH   5  24
ENDBRANCH   2   4
ENDBRANCH   1   2
BRANCH   1  40
ATOM     40  O   UNL     1      -8.399   4.912  17.736  0.00  0.00    +0.000 OA
BRANCH  40  41
ATOM     41  C   UNL     1      -9.021   5.753  16.781  0.00  0.00    +0.000 C 
BRANCH  41  42
ATOM     42  C   UNL     1      -8.088   6.036  15.600  0.00  0.00    +0.000 C 
BRANCH  42  43
ATOM     43  O   UNL     1      -8.248   5.048  14.648  0.00  0.00    +0.000 OA
BRANCH  43  44
ATOM     44  C   UNL     1      -9.381   5.258  13.806  0.00  0.00    +0.000 C 
BRANCH  44  45
ATOM     45  C   UNL     1      -9.069   4.747  12.410  0.00  0.00    +0.000 C 
BRANCH  45  46
ATOM     46  O   UNL     1      -9.127   5.805  11.507  0.00  0.00    +0.000 OA
BRANCH  46  47
ATOM     47  C   UNL     1      -8.485   5.492  10.310  0.00  0.00    +0.000 C 
BRANCH  47  48
ATOM     48  C   UNL     1      -9.346   4.502   9.524  0.00  0.00    +0.000 C 
BRANCH  48  49
ATOM     49  O   UNL     1      -9.221   4.785   8.152  0.00  0.00    +0.000 OA
BRANCH  49  50
ATOM     50  C   UNL     1     -10.012   5.867   7.715  0.00  0.00    +0.000 C 
BRANCH  50  51
ATOM     51  C   UNL     1     -10.480   5.570   6.303  0.00  0.00    +0.000 C 
BRANCH  51  52
ATOM     52  O   UNL     1     -11.282   4.375   6.373  0.00  0.00    +0.000 OA
BRANCH  52  53
ATOM     53  C   UNL     1     -12.536   4.594   7.027  0.00  0.00    +0.000 C 
BRANCH  53  54
ATOM     54  C   UNL     1     -13.627   3.795   6.410  0.00  0.00    +0.000 C 
ATOM     55  O   UNL     1     -14.501   4.673   5.725  0.00  0.00    +0.000 OA
ENDBRANCH  53  54
ENDBRANCH  52  53
ENDBRANCH  51  52
ENDBRANCH  50  51
ENDBRANCH  49  50
ENDBRANCH  48  49
ENDBRANCH  47  48
ENDBRANCH  46  47
ENDBRANCH  45  46
ENDBRANCH  44  45
ENDBRANCH  43  44
ENDBRANCH  42  43
ENDBRANCH  41  42
ENDBRANCH  40  41
ENDBRANCH   1  40
BRANCH   1  56
ATOM     56  C   UNL     1      -8.536   4.512  20.130  0.00  0.00    +0.000 C 
BRANCH  56  57
ATOM     57  O   UNL     1      -8.604   3.289  19.526  0.00  0.00    +0.000 OA
BRANCH  57  58
ATOM     58  C   UNL     1      -9.085   2.312  20.494  0.00  0.00    +0.000 C 
BRANCH  58  59
ATOM     59  C   UNL     1     -10.522   1.943  20.184  0.00  0.00    +0.000 C 
BRANCH  59  60
ATOM     60  O   UNL     1     -11.327   3.087  20.325  0.00  0.00    +0.000 OA
BRANCH  60  61
ATOM     61  C   UNL     1     -12.341   3.132  19.352  0.00  0.00    +0.000 C 
BRANCH  61  62
ATOM     62  C   UNL     1     -11.725   3.700  18.067  0.00  0.00    +0.000 C 
BRANCH  62  63
ATOM     63  O   UNL     1     -12.476   3.207  16.942  0.00  0.00    +0.000 OA
BRANCH  63  64
ATOM     64  C   UNL     1     -11.942   3.691  15.705  0.00  0.00    +0.000 C 
BRANCH  64  65
ATOM     65  C   UNL     1     -12.449   2.852  14.547  0.00  0.00    +0.000 C 
BRANCH  65  66
ATOM     66  O   UNL     1     -11.314   2.267  13.897  0.00  0.00    +0.000 OA
BRANCH  66  67
ATOM     67  C   UNL     1     -11.560   2.017  12.493  0.00  0.00    +0.000 C 
BRANCH  67  68
ATOM     68  C   UNL     1     -12.697   0.956  12.415  0.00  0.00    +0.000 C 
BRANCH  68  69
ATOM     69  O   UNL     1     -12.317  -0.207  13.143  0.00  0.00    +0.000 OA
BRANCH  69  70
ATOM     70  C   UNL     1     -12.900  -1.404  12.619  0.00  0.00    +0.000 C 
BRANCH  70  71
ATOM     71  C   UNL     1     -13.092  -1.284  11.141  0.00  0.00    +0.000 C 
BRANCH  71  72
ATOM     72  O   UNL     1     -14.434  -1.536  10.821  0.00  0.00    +0.000 OA
BRANCH  72  74
ATOM     73  O   UNL     1     -14.468  -1.331   8.616  0.00  0.00    +0.000 OA
ATOM     74  C   UNL     1     -14.802  -0.913   9.659  0.00  0.00    +0.000 C 
BRANCH  74  75
ATOM     75  C   UNL     1     -15.610   0.338   9.778  0.00  0.00    +0.000 C 
BRANCH  75  76
ATOM     76  C   UNL     1     -17.110   0.022  10.065  0.00  0.00    +0.000 C 
BRANCH  76  77
ATOM     77  C   UNL     1     -17.914   0.937   9.179  0.00  0.00    +0.000 C 
BRANCH  77  78
ATOM     78  C   UNL     1     -16.988   1.794   8.367  0.00  0.00    +0.000 C 
BRANCH  78  79
ATOM     79  C   UNL     1     -17.780   2.791   7.575  0.00  0.00    +0.000 C 
BRANCH  79  80
ATOM     80  C   UNL     1     -17.144   4.160   7.748  0.00  0.00    +0.000 C 
BRANCH  80  81
ATOM     81  C   UNL     1     -16.248   4.097   8.949  0.00  0.00    +0.000 C 
BRANCH  81  82
ATOM     82  C   UNL     1     -16.314   5.377   9.734  0.00  0.00    +0.000 C 
BRANCH  82  83
ATOM     83  C   UNL     1     -16.335   5.079  11.199  0.00  0.00    +0.000 C 
BRANCH  83  84
ATOM     84  C   UNL     1     -16.051   3.593  11.375  0.00  0.00    +0.000 C 
BRANCH  84  85
ATOM     85  C   UNL     1     -15.467   3.372  12.730  0.00  0.00    +0.000 C 
BRANCH  85  86
ATOM     86  C   UNL     1     -16.583   3.556  13.765  0.00  0.00    +0.000 C 
BRANCH  86  87
ATOM     87  C   UNL     1     -16.027   3.275  15.151  0.00  0.00    +0.000 C 
BRANCH  87  88
ATOM     88  C   UNL     1     -17.204   2.934  16.043  0.00  0.00    +0.000 C 
BRANCH  88  89
ATOM     89  C   UNL     1     -18.383   2.585  15.151  0.00  0.00    +0.000 C 
BRANCH  89  90
ATOM     90  C   UNL     1     -19.494   2.000  15.971  0.00  0.00    +0.000 C 
ATOM     91  C   UNL     1     -20.805   2.086  15.212  0.00  0.00    +0.000 C 
ENDBRANCH  89  90
ENDBRANCH  88  89
ENDBRANCH  87  88
ENDBRANCH  86  87
ENDBRANCH  85  86
ENDBRANCH  84  85
ENDBRANCH  83  84
ENDBRANCH  82  83
ENDBRANCH  81  82
ENDBRANCH  80  81
ENDBRANCH  79  80
ENDBRANCH  78  79
ENDBRANCH  77  78
ENDBRANCH  76  77
ENDBRANCH  75  76
ENDBRANCH  74  75
ENDBRANCH  72  74
ENDBRANCH  71  72
ENDBRANCH  70  71
ENDBRANCH  69  70
ENDBRANCH  68  69
ENDBRANCH  67  68
ENDBRANCH  66  67
ENDBRANCH  65  66
ENDBRANCH  64  65
ENDBRANCH  63  64
ENDBRANCH  62  63
ENDBRANCH  61  62
ENDBRANCH  60  61
ENDBRANCH  59  60
ENDBRANCH  58  59
ENDBRANCH  57  58
ENDBRANCH  56  57
ENDBRANCH   1  56
TORSDOF 81
BEGIN_RES LEU A  10
REMARK  2 active torsions:
REMARK  status: ('A' for Active; 'I' for Inactive)
REMARK    1  A    between atoms: CA   and  CB  
REMARK    2  A    between atoms: CB   and  CG  
ROOT
ATOM      1  CA  LEU A  10     -10.775  -4.871   5.898  1.00 25.14     0.177 C 
ENDROOT
BRANCH   1   2
ATOM      2  CB  LEU A  10     -12.191  -4.387   6.226  1.00 17.87     0.038 C 
BRANCH   2   3
ATOM      3  CG  LEU A  10     -12.501  -2.967   5.748  1.00 24.95    -0.020 C 
ATOM      4  CD2 LEU A  10     -12.126  -2.845   4.310  1.00 26.38     0.009 C 
ATOM      5  CD1 LEU A  10     -11.758  -1.938   6.584  1.00 28.12     0.009 C 
ENDBRANCH   2   3
ENDBRANCH   1   2
END_RES LEU A  10
BEGIN_RES CYS A  12
REMARK  2 active torsions:
REMARK  status: ('A' for Active; 'I' for Inactive)
REMARK    3  A    between atoms: CA   and  CB  
REMARK    4  A    between atoms: CB   and  SG  
ROOT
ATOM      6  CA  CYS A  12      -8.555   0.470   8.750  1.00 23.16     0.185 C 
ENDROOT
BRANCH   6   7
ATOM      7  CB  CYS A  12      -9.828   0.763   9.555  1.00 20.43     0.105 C 
BRANCH   7   8
ATOM      8  SG  CYS A  12     -11.278   1.295   8.593  1.00 24.64    -0.180 SA
ATOM      9  H04 CYS A  12     -11.551   2.577   8.868  1.00 24.64     0.101 HD
ENDBRANCH   7   8
ENDBRANCH   6   7
END_RES CYS A  12
BEGIN_RES GLN A  14
REMARK  3 active torsions:
REMARK  status: ('A' for Active; 'I' for Inactive)
REMARK    5  A    between atoms: CA   and  CB  
REMARK    6  A    between atoms: CB   and  CG  
REMARK    7  A    between atoms: CG   and  CD  
REMARK       I    between atoms: CD   and  NE2 
ROOT
ATOM     10  CA  GLN A  14      -4.645   5.402  11.377  1.00 10.43     0.177 C 
ENDROOT
BRANCH  10  11
ATOM     11  CB  GLN A  14      -5.541   5.549  12.608  1.00 14.45     0.044 C 
BRANCH  11  12
ATOM     12  CG  GLN A  14      -5.363   6.854  13.349  1.00 13.74     0.105 C 
BRANCH  12  13
ATOM     13  CD  GLN A  14      -5.974   8.023  12.613  1.00 16.29     0.215 C 
ATOM     14  NE2 GLN A  14      -7.287   8.094  12.613  1.00  8.57    -0.370 N 
ATOM     15  H06 GLN A  14      -7.752   8.855  12.139  1.00  8.57     0.159 HD
ATOM     16  H07 GLN A  14      -7.831   7.387  13.088  1.00  8.57     0.159 HD
ATOM     17  OE1 GLN A  14      -5.273   8.853  12.056  1.00 23.55    -0.274 OA
ENDBRANCH  12  13
ENDBRANCH  11  12
ENDBRANCH  10  11
END_RES GLN A  14
BEGIN_RES SER A  16
REMARK  2 active torsions:
REMARK  status: ('A' for Active; 'I' for Inactive)
REMARK    8  A    between atoms: CA   and  CB  
REMARK    9  A    between atoms: CB   and  OG  
ROOT
ATOM     18  CA  SER A  16      -1.305  10.019  14.282  1.00  2.34     0.200 C 
ENDROOT
BRANCH  18  19
ATOM     19  CB  SER A  16      -2.242   9.935  15.479  1.00  3.12     0.199 C 
BRANCH  19  20
ATOM     20  OG  SER A  16      -1.951   8.784  16.252  1.00  1.00    -0.398 OA
ATOM     21  H04 SER A  16      -1.832   9.037  17.171  1.00  1.00     0.209 HD
ENDBRANCH  19  20
ENDBRANCH  18  19
END_RES SER A  16
BEGIN_RES LEU A  32
REMARK  2 active torsions:
REMARK  status: ('A' for Active; 'I' for Inactive)
REMARK   10  A    between atoms: CA   and  CB  
REMARK   11  A    between atoms: CB   and  CG  
ROOT
ATOM     22  CA  LEU A  32     -10.272  -4.106   1.587  1.00 16.16     0.177 C 
ENDROOT
BRANCH  22  23
ATOM     23  CB  LEU A  32     -11.613  -3.858   0.880  1.00 12.35     0.038 C 
BRANCH  23  24
ATOM     24  CG  LEU A  32     -12.486  -5.129   0.842  1.00  9.77    -0.020 C 
ATOM     25  CD1 LEU A  32     -13.008  -5.449   2.222  1.00  4.35     0.009 C 
ATOM     26  CD2 LEU A  32     -13.639  -4.960  -0.112  1.00 10.60     0.009 C 
ENDBRANCH  23  24
ENDBRANCH  22  23
END_RES LEU A  32
BEGIN_RES HIS A  38
REMARK  2 active torsions:
REMARK  status: ('A' for Active; 'I' for Inactive)
REMARK   12  A    between atoms: CA   and  CB  
REMARK   13  A    between atoms: CB   and  CG  
ROOT
ATOM     27  CA  HIS A  38     -10.959   4.941   1.621  1.00 16.94     0.182 C 
ENDROOT
BRANCH  27  28
ATOM     28  CB  HIS A  38     -11.810   4.840   2.881  1.00 15.47     0.095 C 
BRANCH  28  29
ATOM     29  CG  HIS A  38     -12.978   3.917   2.748  1.00 18.62     0.053 A 
ATOM     30  CD2 HIS A  38     -14.160   4.067   2.104  1.00 15.06     0.116 A 
ATOM     31  NE2 HIS A  38     -14.861   2.901   2.275  1.00 18.12    -0.359 N 
ATOM     32  CE1 HIS A  38     -14.139   2.066   2.996  1.00 14.78     0.207 A 
ATOM     33  H06 HIS A  38     -15.783   2.712   1.907  1.00 18.12     0.166 HD
ATOM     34  ND1 HIS A  38     -12.999   2.654   3.296  1.00 16.58    -0.247 NA
ENDBRANCH  28  29
ENDBRANCH  27  28
END_RES HIS A  38
BEGIN_RES TRP A  63
REMARK  2 active torsions:
REMARK  status: ('A' for Active; 'I' for Inactive)
REMARK   14  A    between atoms: CA   and  CB  
REMARK   15  A    between atoms: CB   and  CG  
ROOT
ATOM     35  CA  TRP A  63     -22.437   6.257   6.543  1.00 27.04     0.181 C 
ENDROOT
BRANCH  35  36
ATOM     36  CB  TRP A  63     -22.360   6.642   5.068  1.00 31.37     0.075 C 
BRANCH  36  37
ATOM     37  CG  TRP A  63     -20.956   6.881   4.552  1.00 34.37    -0.028 A 
ATOM     38  CD2 TRP A  63     -19.906   5.913   4.416  1.00 33.79    -0.002 A 
ATOM     39  CE3 TRP A  63     -19.786   4.558   4.729  1.00 32.99     0.014 A 
ATOM     40  CE2 TRP A  63     -18.804   6.574   3.830  1.00 35.84     0.042 A 
ATOM     41  CZ3 TRP A  63     -18.590   3.912   4.452  1.00 32.93     0.001 A 
ATOM     42  CH2 TRP A  63     -17.512   4.597   3.869  1.00 39.24     0.002 A 
ATOM     43  CZ2 TRP A  63     -17.600   5.926   3.550  1.00 37.99     0.030 A 
ATOM     44  NE1 TRP A  63     -19.172   7.876   3.624  1.00 37.98    -0.365 N 
ATOM     45  H06 TRP A  63     -18.589   8.593   3.217  1.00 37.98     0.165 HD
ATOM     46  CD1 TRP A  63     -20.462   8.049   4.063  1.00 38.16     0.096 A 
ENDBRANCH  36  37
ENDBRANCH  35  36
END_RES TRP A  63
BEGIN_RES LEU A  66
REMARK  2 active torsions:
REMARK  status: ('A' for Active; 'I' for Inactive)
REMARK   16  A    between atoms: CA   and  CB  
REMARK   17  A    between atoms: CB   and  CG  
ROOT
ATOM     47  CA  LEU A  66     -20.004   6.489  11.120  1.00 10.90     0.177 C 
ENDROOT
BRANCH  47  48
ATOM     48  CB  LEU A  66     -19.626   5.453  10.069  1.00 13.57     0.038 C 
BRANCH  48  49
ATOM     49  CG  LEU A  66     -19.645   3.985  10.495  1.00  8.73    -0.020 C 
ATOM     50  CD1 LEU A  66     -19.847   3.867  11.983  1.00 14.23     0.009 C 
ATOM     51  CD2 LEU A  66     -20.765   3.291   9.764  1.00  1.92     0.009 C 
ENDBRANCH  48  49
ENDBRANCH  47  48
END_RES LEU A  66
BEGIN_RES PHE A  70
REMARK  2 active torsions:
REMARK  status: ('A' for Active; 'I' for Inactive)
REMARK   18  A    between atoms: CA   and  CB  
REMARK   19  A    between atoms: CB   and  CG  
ROOT
ATOM     52  CA  PHE A  70     -14.974   9.434  13.165  1.00  8.78     0.180 C 
ENDROOT
BRANCH  52  53
ATOM     53  CB  PHE A  70     -14.707   9.132  11.681  1.00  6.33     0.073 C 
BRANCH  53  54
ATOM     54  CG  PHE A  70     -13.966   7.842  11.457  1.00  3.42    -0.056 A 
ATOM     55  CD1 PHE A  70     -13.556   7.058  12.524  1.00 13.88     0.007 A 
ATOM     56  CE1 PHE A  70     -12.823   5.877  12.309  1.00 12.71     0.001 A 
ATOM     57  CZ  PHE A  70     -12.499   5.478  11.012  1.00  4.21     0.000 A 
ATOM     58  CE2 PHE A  70     -12.905   6.250   9.940  1.00  2.83     0.001 A 
ATOM     59  CD2 PHE A  70     -13.638   7.429  10.165  1.00  1.00     0.007 A 
ENDBRANCH  53  54
ENDBRANCH  52  53
END_RES PHE A  70
BEGIN_RES TYR A  73
REMARK  3 active torsions:
REMARK  status: ('A' for Active; 'I' for Inactive)
REMARK   20  A    between atoms: CA   and  CB  
REMARK   21  A    between atoms: CB   and  CG  
REMARK   22  A    between atoms: CZ   and  OH  
ROOT
ATOM     60  CA  TYR A  73     -13.212  10.166  17.260  1.00 12.17     0.180 C 
ENDROOT
BRANCH  60  61
ATOM     61  CB  TYR A  73     -13.301   8.846  16.517  1.00 12.84     0.073 C 
BRANCH  61  62
ATOM     62  CG  TYR A  73     -13.924   7.762  17.325  1.00 15.89    -0.056 A 
ATOM     63  CD1 TYR A  73     -14.027   6.479  16.835  1.00 16.00     0.010 A 
ATOM     64  CE1 TYR A  73     -14.639   5.470  17.578  1.00 13.55     0.037 A 
ATOM     65  CZ  TYR A  73     -15.150   5.763  18.826  1.00 18.13     0.065 A 
ATOM     66  CE2 TYR A  73     -15.059   7.036  19.339  1.00 15.89     0.037 A 
ATOM     67  CD2 TYR A  73     -14.446   8.029  18.586  1.00 21.86     0.010 A 
BRANCH  65  68
ATOM     68  OH  TYR A  73     -15.751   4.783  19.578  1.00 12.12    -0.361 OA
ATOM     69  H08 TYR A  73     -15.150   4.041  19.677  1.00 12.12     0.217 HD
ENDBRANCH  65  68
ENDBRANCH  61  62
ENDBRANCH  60  61
END_RES TYR A  73
BEGIN_RES PHE A  77
REMARK  2 active torsions:
REMARK  status: ('A' for Active; 'I' for Inactive)
REMARK   23  A    between atoms: CA   and  CB  
REMARK   24  A    between atoms: CB   and  CG  
ROOT
ATOM     70  CA  PHE A  77      -8.400  10.581  20.110  1.00 17.17     0.180 C 
ENDROOT
BRANCH  70  71
ATOM     71  CB  PHE A  77      -8.228   9.750  18.851  1.00 10.44     0.073 C 
BRANCH  71  72
ATOM     72  CG  PHE A  77      -6.985   8.916  18.844  1.00  6.07    -0.056 A 
ATOM     73  CD2 PHE A  77      -6.611   8.209  19.964  1.00  9.61     0.007 A 
ATOM     74  CE2 PHE A  77      -5.459   7.431  19.966  1.00  1.00     0.001 A 
ATOM     75  CZ  PHE A  77      -4.672   7.358  18.828  1.00  1.92     0.000 A 
ATOM     76  CE1 PHE A  77      -5.034   8.058  17.699  1.00  9.25     0.001 A 
ATOM     77  CD1 PHE A  77      -6.191   8.836  17.712  1.00  9.63     0.007 A 
ENDBRANCH  71  72
ENDBRANCH  70  71
END_RES PHE A  77
BEGIN_RES LEU A  96
REMARK  2 active torsions:
REMARK  status: ('A' for Active; 'I' for Inactive)
REMARK   25  A    between atoms: CA   and  CB  
REMARK   26  A    between atoms: CB   and  CG  
ROOT
ATOM     78  CA  LEU A  96       0.717   6.481  17.359  1.00 16.08     0.177 C 
ENDROOT
BRANCH  78  79
ATOM     79  CB  LEU A  96      -0.370   7.101  18.230  1.00 18.83     0.038 C 
BRANCH  79  80
ATOM     80  CG  LEU A  96      -0.208   6.842  19.728  1.00 19.03    -0.020 C 
ATOM     81  CD1 LEU A  96       0.418   5.481  19.923  1.00 28.17     0.009 C 
ATOM     82  CD2 LEU A  96       0.700   7.880  20.347  1.00 22.01     0.009 C 
ENDBRANCH  79  80
ENDBRANCH  78  79
END_RES LEU A  96
BEGIN_RES VAL A  98
REMARK  1 active torsions:
REMARK  status: ('A' for Active; 'I' for Inactive)
REMARK   27  A    between atoms: CA   and  CB  
ROOT
ATOM     83  CA  VAL A  98      -3.928   2.082  14.897  1.00 19.83     0.180 C 
ENDROOT
BRANCH  83  84
ATOM     84  CB  VAL A  98      -5.203   2.807  15.281  1.00 17.87     0.009 C 
ATOM     85  CG2 VAL A  98      -4.879   4.187  15.792  1.00 29.90     0.012 C 
ATOM     86  CG1 VAL A  98      -5.945   2.006  16.330  1.00 14.79     0.012 C 
ENDBRANCH  83  84
END_RES VAL A  98
BEGIN_RES ASN A 112
REMARK  2 active torsions:
REMARK  status: ('A' for Active; 'I' for Inactive)
REMARK   28  A    between atoms: CA   and  CB  
REMARK   29  A    between atoms: CB   and  CG  
REMARK       I    between atoms: CG   and  ND2 
ROOT
ATOM     87  CA  ASN A 112     -11.790  -8.793  14.069  1.00 37.70     0.185 C 
ENDROOT
BRANCH  87  88
ATOM     88  CB  ASN A 112     -12.992  -7.945  14.465  1.00 26.24     0.137 C 
BRANCH  88  89
ATOM     89  CG  ASN A 112     -13.804  -8.555  15.585  1.00 21.77     0.217 C 
ATOM     90  ND2 ASN A 112     -14.948  -9.140  15.232  1.00  9.31    -0.370 N 
ATOM     91  H04 ASN A 112     -15.537  -9.564  15.935  1.00  9.31     0.159 HD
ATOM     92  H05 ASN A 112     -15.226  -9.159  14.261  1.00  9.31     0.159 HD
ATOM     93  OD1 ASN A 112     -13.414  -8.498  16.758  1.00 21.61    -0.274 OA
ENDBRANCH  88  89
ENDBRANCH  87  88
END_RES ASN A 112
BEGIN_RES PHE A 114
REMARK  2 active torsions:
REMARK  status: ('A' for Active; 'I' for Inactive)
REMARK   30  A    between atoms: CA   and  CB  
REMARK   31  A    between atoms: CB   and  CG  
ROOT
ATOM     94  CA  PHE A 114      -7.754  -3.619  17.012  1.00 26.06     0.180 C 
ENDROOT
BRANCH  94  95
ATOM     95  CB  PHE A 114      -8.890  -3.080  17.867  1.00 19.95     0.073 C 
BRANCH  95  96
ATOM     96  CG  PHE A 114      -9.269  -1.674  17.531  1.00 17.65    -0.056 A 
ATOM     97  CD1 PHE A 114      -8.302  -0.676  17.446  1.00 13.01     0.007 A 
ATOM     98  CE1 PHE A 114      -8.656   0.636  17.162  1.00  6.74     0.001 A 
ATOM     99  CZ  PHE A 114      -9.992   0.968  16.955  1.00  6.27     0.000 A 
ATOM    100  CE2 PHE A 114     -10.963  -0.017  17.036  1.00 17.36     0.001 A 
ATOM    101  CD2 PHE A 114     -10.599  -1.336  17.323  1.00 18.39     0.007 A 
ENDBRANCH  95  96
ENDBRANCH  94  95
END_RES PHE A 114
BEGIN_RES VAL A 116
REMARK  1 active torsions:
REMARK  status: ('A' for Active; 'I' for Inactive)
REMARK   32  A    between atoms: CA   and  CB  
ROOT
ATOM    102  CA  VAL A 116      -2.467   0.283  18.565  1.00 13.48     0.180 C 
ENDROOT
BRANCH 102 103
ATOM    103  CB  VAL A 116      -3.101   1.238  19.599  1.00 20.86     0.009 C 
ATOM    104  CG1 VAL A 116      -2.734   2.684  19.253  1.00 25.01     0.012 C 
ATOM    105  CG2 VAL A 116      -4.598   1.044  19.664  1.00 25.34     0.012 C 
ENDBRANCH 102 103
END_RES VAL A 116
BEGIN_RES ILE A 123
REMARK  2 active torsions:
REMARK  status: ('A' for Active; 'I' for Inactive)
REMARK   33  A    between atoms: CA   and  CB  
REMARK   34  A    between atoms: CB   and  CG1 
ROOT
ATOM    106  CA  ILE A 123       1.557  -1.626  23.222  1.00 15.07     0.180 C 
ENDROOT
BRANCH 106 107
ATOM    107  CB  ILE A 123       1.697  -0.112  23.461  1.00 14.41     0.013 C 
ATOM    108  CG2 ILE A 123       3.108   0.211  23.919  1.00 18.35     0.012 C 
BRANCH 107 109
ATOM    109  CG1 ILE A 123       1.367   0.659  22.185  1.00 15.23     0.002 C 
ATOM    110  CD1 ILE A 123       0.240   1.649  22.350  1.00 14.67     0.005 C 
ENDBRANCH 107 109
ENDBRANCH 106 107
END_RES ILE A 123
BEGIN_RES LEU A 124
REMARK  2 active torsions:
REMARK  status: ('A' for Active; 'I' for Inactive)
REMARK   35  A    between atoms: CA   and  CB  
REMARK   36  A    between atoms: CB   and  CG  
ROOT
ATOM    111  CA  LEU A 124      -2.057  -2.686  23.524  1.00 11.86     0.177 C 
ENDROOT
BRANCH 111 112
ATOM    112  CB  LEU A 124      -2.698  -1.652  24.429  1.00 14.60     0.038 C 
BRANCH 112 113
ATOM    113  CG  LEU A 124      -2.607  -0.249  23.848  1.00 16.19    -0.020 C 
ATOM    114  CD1 LEU A 124      -3.998   0.174  23.337  1.00 22.07     0.009 C 
ATOM    115  CD2 LEU A 124      -2.083   0.697  24.899  1.00  9.12     0.009 C 
ENDBRANCH 112 113
ENDBRANCH 111 112
END_RES LEU A 124
BEGIN_RES PHE A 126
REMARK  2 active torsions:
REMARK  status: ('A' for Active; 'I' for Inactive)
REMARK   37  A    between atoms: CA   and  CB  
REMARK   38  A    between atoms: CB   and  CG  
ROOT
ATOM    116  CA  PHE A 126      -8.784  -4.792  22.233  1.00 23.15     0.180 C 
ENDROOT
BRANCH 116 117
ATOM    117  CB  PHE A 126      -9.823  -4.011  21.461  1.00 20.65     0.073 C 
BRANCH 117 118
ATOM    118  CG  PHE A 126     -10.942  -3.530  22.299  1.00 23.65    -0.056 A 
ATOM    119  CD2 PHE A 126     -10.723  -2.609  23.309  1.00 36.63     0.007 A 
ATOM    120  CE2 PHE A 126     -11.784  -2.153  24.102  1.00 36.27     0.001 A 
ATOM    121  CZ  PHE A 126     -13.068  -2.627  23.877  1.00 18.06     0.000 A 
ATOM    122  CE1 PHE A 126     -13.291  -3.544  22.870  1.00  5.50     0.001 A 
ATOM    123  CD1 PHE A 126     -12.229  -3.990  22.084  1.00 15.29     0.007 A 
ENDBRANCH 117 118
ENDBRANCH 116 117
END_RES PHE A 126
BEGIN_RES TRP A 131
REMARK  2 active torsions:
REMARK  status: ('A' for Active; 'I' for Inactive)
REMARK   39  A    between atoms: CA   and  CB  
REMARK   40  A    between atoms: CB   and  CG  
ROOT
ATOM    124  CA  TRP A 131      -8.096  -3.335  26.542  1.00 14.52     0.181 C 
ENDROOT
BRANCH 124 125
ATOM    125  CB  TRP A 131      -7.651  -1.877  26.607  1.00 13.06     0.075 C 
BRANCH 125 126
ATOM    126  CG  TRP A 131      -8.077  -1.044  25.419  1.00 16.97    -0.028 A 
ATOM    127  CD2 TRP A 131      -9.163  -0.114  25.376  1.00 11.34    -0.002 A 
ATOM    128  CE2 TRP A 131      -9.196   0.439  24.081  1.00  5.87     0.042 A 
ATOM    129  CE3 TRP A 131     -10.114   0.304  26.313  1.00  3.80     0.014 A 
ATOM    130  CZ2 TRP A 131     -10.141   1.393  23.699  1.00  1.35     0.030 A 
ATOM    131  NE1 TRP A 131      -8.177  -0.129  23.365  1.00 13.90    -0.365 N 
ATOM    132  CH2 TRP A 131     -11.061   1.785  24.639  1.00  1.00     0.002 A 
ATOM    133  CZ3 TRP A 131     -11.055   1.247  25.940  1.00  1.00     0.001 A 
ATOM    134  CD1 TRP A 131      -7.509  -1.018  24.175  1.00 17.22     0.096 A 
ATOM    135  H07 TRP A 131      -7.953   0.072  22.402  1.00 13.90     0.165 HD
ENDBRANCH 125 126
ENDBRANCH 124 125
END_RES TRP A 131
BEGIN_RES LEU A 148
REMARK  2 active torsions:
REMARK  status: ('A' for Active; 'I' for Inactive)
REMARK   41  A    between atoms: CA   and  CB  
REMARK   42  A    between atoms: CB   and  CG  
ROOT
ATOM    136  CA  LEU A 148      -9.018   3.259  29.295  1.00 16.99     0.177 C 
ENDROOT
BRANCH 136 137
ATOM    137  CB  LEU A 148      -8.166   2.574  28.236  1.00  6.39     0.038 C 
BRANCH 137 138
ATOM    138  CG  LEU A 148      -7.545   3.363  27.101  1.00  1.00    -0.020 C 
ATOM    139  CD2 LEU A 148      -8.614   4.029  26.284  1.00  1.00     0.009 C 
ATOM    140  CD1 LEU A 148      -6.737   2.406  26.244  1.00  2.71     0.009 C 
ENDBRANCH 137 138
ENDBRANCH 136 137
END_RES LEU A 148
BEGIN_RES THR A 154
REMARK  2 active torsions:
REMARK  status: ('A' for Active; 'I' for Inactive)
REMARK   43  A    between atoms: CA   and  CB  
REMARK   44  A    between atoms: CB   and  OG1 
ROOT
ATOM    141  CA  THR A 154     -15.990   3.959  24.426  1.00 20.45     0.205 C 
ENDROOT
BRANCH 141 142
ATOM    142  CB  THR A 154     -14.777   4.829  24.694  1.00 16.79     0.146 C 
ATOM    143  CG2 THR A 154     -13.517   3.984  24.699  1.00 20.24     0.042 C 
BRANCH 142 144
ATOM    144  OG1 THR A 154     -14.671   5.811  23.656  1.00 18.84    -0.393 OA
ATOM    145  H06 THR A 154     -15.547   6.132  23.428  1.00 18.84     0.210 HD
ENDBRANCH 142 144
ENDBRANCH 141 142
END_RES THR A 154
BEGIN_RES VAL A 158
REMARK  1 active torsions:
REMARK  status: ('A' for Active; 'I' for Inactive)
REMARK   45  A    between atoms: CA   and  CB  
ROOT
ATOM    146  CA  VAL A 158     -15.487  -0.189  19.892  1.00 15.49     0.180 C 
ENDROOT
BRANCH 146 147
ATOM    147  CB  VAL A 158     -14.291  -0.273  20.822  1.00  6.52     0.009 C 
ATOM    148  CG1 VAL A 158     -13.118  -0.932  20.133  1.00  1.00     0.012 C 
ATOM    149  CG2 VAL A 158     -13.933   1.110  21.270  1.00  5.99     0.012 C 
ENDBRANCH 146 147
END_RES VAL A 158
BEGIN_RES LEU A 161
REMARK  2 active torsions:
REMARK  status: ('A' for Active; 'I' for Inactive)
REMARK   46  A    between atoms: CA   and  CB  
REMARK   47  A    between atoms: CB   and  CG  
ROOT
ATOM    150  CA  LEU A 161     -18.031  -1.858  15.935  1.00 13.31     0.177 C 
ENDROOT
BRANCH 150 151
ATOM    151  CB  LEU A 161     -17.046  -0.706  16.001  1.00 14.13     0.038 C 
BRANCH 151 152
ATOM    152  CG  LEU A 161     -15.842  -0.793  15.071  1.00 19.39    -0.020 C 
ATOM    153  CD2 LEU A 161     -14.631  -0.172  15.724  1.00 27.75     0.009 C 
ATOM    154  CD1 LEU A 161     -16.164  -0.072  13.790  1.00 18.59     0.009 C 
ENDBRANCH 151 152
ENDBRANCH 150 151
END_RES LEU A 161
BEGIN_RES GLN A 168
REMARK  3 active torsions:
REMARK  status: ('A' for Active; 'I' for Inactive)
REMARK   48  A    between atoms: CA   and  CB  
REMARK   49  A    between atoms: CB   and  CG  
REMARK   50  A    between atoms: CG   and  CD  
REMARK       I    between atoms: CD   and  NE2 
ROOT
ATOM    155  CA  GLN A 168     -22.035  -6.020   8.155  1.00 30.94     0.177 C 
ENDROOT
BRANCH 155 156
ATOM    156  CB  GLN A 168     -23.054  -5.218   8.946  1.00 41.76     0.044 C 
BRANCH 156 157
ATOM    157  CG  GLN A 168     -24.474  -5.375   8.474  1.00 61.20     0.105 C 
BRANCH 157 158
ATOM    158  CD  GLN A 168     -25.351  -4.224   8.927  1.00 75.49     0.215 C 
ATOM    159  NE2 GLN A 168     -25.691  -3.337   7.990  1.00 85.00    -0.370 N 
ATOM    160  H06 GLN A 168     -26.272  -2.546   8.231  1.00 85.00     0.159 HD
ATOM    161  H07 GLN A 168     -25.367  -3.456   7.041  1.00 85.00     0.159 HD
ATOM    162  OE1 GLN A 168     -25.717  -4.125  10.107  1.00 73.64    -0.274 OA
ENDBRANCH 157 158
ENDBRANCH 156 157
ENDBRANCH 155 156
END_RES GLN A 168
ENDMDL
MODEL 7
REMARK VINA RESULT:      -6.6      1.696      2.693
REMARK  Name = human_CD1d_tween80_pred.rank_0
REMARK  81 active torsions:
REMARK  status: ('A' for Active; 'I' for Inactive)
REMARK    1  A    between atoms: C_1  and  C_3
REMARK    2  A    between atoms: C_3  and  O_4
REMARK    3  A    between atoms: O_4  and  C_5
REMARK    4  A    between atoms: C_5  and  C_7
REMARK    5  A    between atoms: O_6  and  C_7
REMARK    6  A    between atoms: O_6  and  C_9
REMARK    7  A    between atoms: O_8  and  C_11
REMARK    8  A    between atoms: O_8  and  C_13
REMARK    9  A    between atoms: C_9  and  C_11
REMARK   10  A    between atoms: O_10  and  C_15
REMARK   11  A    between atoms: O_10  and  C_17
REMARK   12  A    between atoms: O_12  and  C_19
REMARK   13  A    between atoms: O_12  and  C_21
REMARK   14  A    between atoms: C_13  and  C_15
REMARK   15  A    between atoms: O_14  and  C_23
REMARK   16  A    between atoms: O_14  and  C_25
REMARK   17  A    between atoms: O_16  and  C_27
REMARK   18  A    between atoms: O_16  and  C_29
REMARK   19  A    between atoms: C_17  and  C_19
REMARK   20  A    between atoms: O_18  and  C_31
REMARK   21  A    between atoms: O_18  and  C_33
REMARK   22  A    between atoms: O_20  and  C_35
REMARK   23  A    between atoms: O_20  and  C_37
REMARK   24  A    between atoms: C_21  and  C_23
REMARK   25  A    between atoms: C_21  and  C_67
REMARK   26  A    between atoms: O_22  and  C_39
REMARK   27  A    between atoms: O_22  and  C_41
REMARK   28  A    between atoms: O_24  and  C_43
REMARK   29  A    between atoms: O_24  and  C_45
REMARK   30  A    between atoms: C_25  and  C_27
REMARK   31  A    between atoms: O_28  and  C_69
REMARK   32  A    between atoms: O_28  and  C_70
REMARK   33  A    between atoms: C_29  and  C_31
REMARK   34  A    between atoms: O_30  and  C_71
REMARK   35  A    between atoms: O_30  and  C_72
REMARK   36  A    between atoms: O_32  and  C_73
REMARK   37  A    between atoms: O_32  and  C_74
REMARK   38  A    between atoms: C_33  and  C_35
REMARK   39  A    between atoms: O_34  and  C_75
REMARK   40  A    between atoms: O_34  and  C_76
REMARK   41  A    between atoms: O_36  and  C_77
REMARK   42  A    between atoms: O_36  and  C_78
REMARK   43  A    between atoms: C_37  and  C_39
REMARK   44  A    between atoms: O_40  and  C_80
REMARK   45  A    between atoms: O_40  and  C_81
REMARK   46  A    between atoms: C_41  and  C_43
REMARK   47  A    between atoms: O_42  and  C_82
REMARK   48  A    between atoms: O_42  and  C_83
REMARK   49  A    between atoms: O_44  and  C_84
REMARK   50  A    between atoms: O_44  and  C_85
REMARK   51  A    between atoms: C_45  and  C_47
REMARK   52  A    between atoms: O_46  and  C_86
REMARK   53  A    between atoms: O_46  and  C_87
REMARK   54  A    between atoms: C_47  and  C_49
REMARK   55  A    between atoms: O_48  and  C_88
REMARK   56  A    between atoms: O_48  and  C_89
REMARK   57  A    between atoms: C_49  and  C_51
REMARK   58  A    between atoms: C_51  and  C_53
REMARK   59  A    between atoms: C_53  and  C_54
REMARK   60  A    between atoms: C_54  and  C_55
REMARK   61  A    between atoms: C_55  and  C_56
REMARK   62  A    between atoms: C_56  and  C_57
REMARK   63  A    between atoms: C_57  and  C_58
REMARK   64  A    between atoms: C_58  and  C_59
REMARK   65  A    between atoms: C_59  and  C_60
REMARK   66  A    between atoms: C_60  and  C_61
REMARK   67  A    between atoms: C_61  and  C_62
REMARK   68  A    between atoms: C_62  and  C_63
REMARK   69  A    between atoms: C_63  and  C_64
REMARK   70  A    between atoms: C_64  and  C_65
REMARK   71  A    between atoms: C_67  and  C_68
REMARK   72  A    between atoms: C_70  and  C_71
REMARK   73  A    between atoms: C_72  and  C_73
REMARK   74  A    between atoms: C_74  and  C_75
REMARK   75  A    between atoms: C_76  and  C_77
REMARK   76  A    between atoms: C_78  and  C_79
REMARK   77  A    between atoms: C_81  and  C_82
REMARK   78  A    between atoms: C_83  and  C_84
REMARK   79  A    between atoms: C_85  and  C_86
REMARK   80  A    between atoms: C_87  and  C_88
REMARK   81  A    between atoms: C_89  and  C_90
REMARK                            x       y       z     vdW  Elec       q    Type
REMARK                         _______ _______ _______ _____ _____    ______ ____
ROOT
ATOM      1  C   UNL     1     -12.953   4.391  18.236  0.00  0.00    +0.000 C 
ENDROOT
BRANCH   1   2
ATOM      2  C   UNL     1     -12.226   3.657  19.550  0.00  0.00    +0.000 C 
BRANCH   2   4
ATOM      3  O   UNL     1      -9.958   3.483  20.356  0.00  0.00    +0.000 OA
ATOM      4  C   UNL     1     -10.955   4.343  19.931  0.00  0.00    +0.000 C 
ATOM      5  C   UNL     1     -11.076   5.166  21.243  0.00  0.00    +0.000 C 
ATOM      6  C   UNL     1      -9.570   5.297  21.615  0.00  0.00    +0.000 C 
ATOM      7  C   UNL     1      -8.954   4.071  21.089  0.00  0.00    +0.000 C 
BRANCH   6   8
ATOM      8  O   UNL     1      -9.475   5.251  23.031  0.00  0.00    +0.000 OA
BRANCH   8   9
ATOM      9  C   UNL     1      -8.778   6.369  23.629  0.00  0.00    +0.000 C 
BRANCH   9  10
ATOM     10  C   UNL     1      -7.331   6.000  23.824  0.00  0.00    +0.000 C 
BRANCH  10  11
ATOM     11  O   UNL     1      -6.595   7.154  24.184  0.00  0.00    +0.000 OA
BRANCH  11  12
ATOM     12  C   UNL     1      -5.248   7.062  23.758  0.00  0.00    +0.000 C 
BRANCH  12  13
ATOM     13  C   UNL     1      -4.830   5.643  23.453  0.00  0.00    +0.000 C 
BRANCH  13  14
ATOM     14  O   UNL     1      -3.873   5.711  22.391  0.00  0.00    +0.000 OA
BRANCH  14  15
ATOM     15  C   UNL     1      -2.989   4.640  22.392  0.00  0.00    +0.000 C 
BRANCH  15  16
ATOM     16  C   UNL     1      -1.772   4.964  23.299  0.00  0.00    +0.000 C 
BRANCH  16  17
ATOM     17  O   UNL     1      -1.641   3.916  24.187  0.00  0.00    +0.000 OA
BRANCH  17  18
ATOM     18  C   UNL     1      -2.081   4.249  25.516  0.00  0.00    +0.000 C 
BRANCH  18  19
ATOM     19  C   UNL     1      -1.550   5.648  25.822  0.00  0.00    +0.000 C 
BRANCH  19  20
ATOM     20  O   UNL     1      -0.491   5.588  26.698  0.00  0.00    +0.000 OA
BRANCH  20  21
ATOM     21  C   UNL     1       0.324   6.725  26.602  0.00  0.00    +0.000 C 
BRANCH  21  23
ATOM     22  O   UNL     1       1.524   6.269  24.597  0.00  0.00    +0.000 OA
ATOM     23  C   UNL     1       0.511   7.127  25.166  0.00  0.00    +0.000 C 
ENDBRANCH  21  23
ENDBRANCH  20  21
ENDBRANCH  19  20
ENDBRANCH  18  19
ENDBRANCH  17  18
ENDBRANCH  16  17
ENDBRANCH  15  16
ENDBRANCH  14  15
ENDBRANCH  13  14
ENDBRANCH  12  13
ENDBRANCH  11  12
ENDBRANCH  10  11
ENDBRANCH   9  10
ENDBRANCH   8   9
ENDBRANCH   6   8
BRANCH   5  24
ATOM     24  O   UNL     1     -11.644   6.429  20.983  0.00  0.00    +0.000 OA
BRANCH  24  25
ATOM     25  C   UNL     1     -12.106   7.091  22.145  0.00  0.00    +0.000 C 
BRANCH  25  26
ATOM     26  C   UNL     1     -12.966   8.294  21.815  0.00  0.00    +0.000 C 
BRANCH  26  27
ATOM     27  O   UNL     1     -14.048   8.327  22.721  0.00  0.00    +0.000 OA
BRANCH  27  28
ATOM     28  C   UNL     1     -14.165   9.565  23.403  0.00  0.00    +0.000 C 
BRANCH  28  29
ATOM     29  C   UNL     1     -13.297   9.629  24.641  0.00  0.00    +0.000 C 
BRANCH  29  30
ATOM     30  O   UNL     1     -12.867  10.955  24.866  0.00  0.00    +0.000 OA
BRANCH  30  31
ATOM     31  C   UNL     1     -13.354  11.519  26.090  0.00  0.00    +0.000 C 
BRANCH  31  32
ATOM     32  C   UNL     1     -12.715  10.810  27.281  0.00  0.00    +0.000 C 
BRANCH  32  33
ATOM     33  O   UNL     1     -11.653  11.559  27.838  0.00  0.00    +0.000 OA
BRANCH  33  34
ATOM     34  C   UNL     1     -10.944  10.860  28.835  0.00  0.00    +0.000 C 
BRANCH  34  35
ATOM     35  C   UNL     1     -11.630   9.521  29.184  0.00  0.00    +0.000 C 
BRANCH  35  36
ATOM     36  O   UNL     1     -10.919   8.911  30.228  0.00  0.00    +0.000 OA
BRANCH  36  37
ATOM     37  C   UNL     1     -11.104   7.507  30.170  0.00  0.00    +0.000 C 
BRANCH  37  39
ATOM     38  O   UNL     1     -10.595   6.275  28.178  0.00  0.00    +0.000 OA
ATOM     39  C   UNL     1     -10.027   6.863  29.348  0.00  0.00    +0.000 C 
ENDBRANCH  37  39
ENDBRANCH  36  37
ENDBRANCH  35  36
ENDBRANCH  34  35
ENDBRANCH  33  34
ENDBRANCH  32  33
ENDBRANCH  31  32
ENDBRANCH  30  31
ENDBRANCH  29  30
ENDBRANCH  28  29
ENDBRANCH  27  28
ENDBRANCH  26  27
ENDBRANCH  25  26
ENDBRANCH  24  25
ENDBRANCH   5  24
ENDBRANCH   2   4
ENDBRANCH   1   2
BRANCH   1  40
ATOM     40  O   UNL     1     -14.356   4.486  18.518  0.00  0.00    +0.000 OA
BRANCH  40  41
ATOM     41  C   UNL     1     -14.716   5.811  18.863  0.00  0.00    +0.000 C 
BRANCH  41  42
ATOM     42  C   UNL     1     -15.821   5.827  19.924  0.00  0.00    +0.000 C 
BRANCH  42  43
ATOM     43  O   UNL     1     -15.953   7.108  20.423  0.00  0.00    +0.000 OA
BRANCH  43  44
ATOM     44  C   UNL     1     -16.333   8.060  19.430  0.00  0.00    +0.000 C 
BRANCH  44  45
ATOM     45  C   UNL     1     -17.794   7.851  19.069  0.00  0.00    +0.000 C 
BRANCH  45  46
ATOM     46  O   UNL     1     -18.506   9.019  19.330  0.00  0.00    +0.000 OA
BRANCH  46  47
ATOM     47  C   UNL     1     -18.960   9.615  18.155  0.00  0.00    +0.000 C 
BRANCH  47  48
ATOM     48  C   UNL     1     -20.477   9.792  18.236  0.00  0.00    +0.000 C 
BRANCH  48  49
ATOM     49  O   UNL     1     -20.761  10.856  19.111  0.00  0.00    +0.000 OA
BRANCH  49  50
ATOM     50  C   UNL     1     -22.137  11.093  19.298  0.00  0.00    +0.000 C 
BRANCH  50  51
ATOM     51  C   UNL     1     -22.907  10.016  18.557  0.00  0.00    +0.000 C 
BRANCH  51  52
ATOM     52  O   UNL     1     -24.173  10.594  18.182  0.00  0.00    +0.000 OA
BRANCH  52  53
ATOM     53  C   UNL     1     -24.394  10.558  16.768  0.00  0.00    +0.000 C 
BRANCH  53  54
ATOM     54  C   UNL     1     -23.587   9.498  16.110  0.00  0.00    +0.000 C 
ATOM     55  O   UNL     1     -23.587   9.729  14.712  0.00  0.00    +0.000 OA
ENDBRANCH  53  54
ENDBRANCH  52  53
ENDBRANCH  51  52
ENDBRANCH  50  51
ENDBRANCH  49  50
ENDBRANCH  48  49
ENDBRANCH  47  48
ENDBRANCH  46  47
ENDBRANCH  45  46
ENDBRANCH  44  45
ENDBRANCH  43  44
ENDBRANCH  42  43
ENDBRANCH  41  42
ENDBRANCH  40  41
ENDBRANCH   1  40
BRANCH   1  56
ATOM     56  C   UNL     1     -12.676   3.529  17.043  0.00  0.00    +0.000 C 
BRANCH  56  57
ATOM     57  O   UNL     1     -11.458   3.915  16.559  0.00  0.00    +0.000 OA
BRANCH  57  58
ATOM     58  C   UNL     1     -11.432   3.693  15.119  0.00  0.00    +0.000 C 
BRANCH  58  59
ATOM     59  C   UNL     1     -10.002   3.523  14.648  0.00  0.00    +0.000 C 
BRANCH  59  60
ATOM     60  O   UNL     1      -9.946   2.456  13.734  0.00  0.00    +0.000 OA
BRANCH  60  61
ATOM     61  C   UNL     1     -10.152   2.893  12.413  0.00  0.00    +0.000 C 
BRANCH  61  62
ATOM     62  C   UNL     1      -9.179   4.051  12.152  0.00  0.00    +0.000 C 
BRANCH  62  63
ATOM     63  O   UNL     1      -8.697   3.947  10.799  0.00  0.00    +0.000 OA
BRANCH  63  64
ATOM     64  C   UNL     1      -9.102   5.074  10.012  0.00  0.00    +0.000 C 
BRANCH  64  65
ATOM     65  C   UNL     1      -9.585   4.618   8.648  0.00  0.00    +0.000 C 
BRANCH  65  66
ATOM     66  O   UNL     1      -9.498   5.735   7.755  0.00  0.00    +0.000 OA
BRANCH  66  67
ATOM     67  C   UNL     1     -10.619   5.791   6.842  0.00  0.00    +0.000 C 
BRANCH  67  68
ATOM     68  C   UNL     1     -11.410   4.461   7.015  0.00  0.00    +0.000 C 
BRANCH  68  69
ATOM     69  O   UNL     1     -12.700   4.591   6.426  0.00  0.00    +0.000 OA
BRANCH  69  70
ATOM     70  C   UNL     1     -13.357   3.333   6.246  0.00  0.00    +0.000 C 
BRANCH  70  71
ATOM     71  C   UNL     1     -14.800   3.544   5.918  0.00  0.00    +0.000 C 
BRANCH  71  72
ATOM     72  O   UNL     1     -15.263   4.699   6.564  0.00  0.00    +0.000 OA
BRANCH  72  74
ATOM     73  O   UNL     1     -17.424   5.185   6.593  0.00  0.00    +0.000 OA
ATOM     74  C   UNL     1     -16.543   4.542   7.023  0.00  0.00    +0.000 C 
BRANCH  74  75
ATOM     75  C   UNL     1     -16.761   3.549   8.118  0.00  0.00    +0.000 C 
BRANCH  75  76
ATOM     76  C   UNL     1     -15.874   3.867   9.360  0.00  0.00    +0.000 C 
BRANCH  76  77
ATOM     77  C   UNL     1     -16.264   5.248   9.819  0.00  0.00    +0.000 C 
BRANCH  77  78
ATOM     78  C   UNL     1     -16.315   5.284  11.319  0.00  0.00    +0.000 C 
BRANCH  78  79
ATOM     79  C   UNL     1     -15.906   3.953  11.875  0.00  0.00    +0.000 C 
BRANCH  79  80
ATOM     80  C   UNL     1     -16.164   3.956  13.372  0.00  0.00    +0.000 C 
BRANCH  80  81
ATOM     81  C   UNL     1     -14.907   3.501  14.052  0.00  0.00    +0.000 C 
BRANCH  81  82
ATOM     82  C   UNL     1     -14.259   2.382  13.286  0.00  0.00    +0.000 C 
BRANCH  82  83
ATOM     83  C   UNL     1     -14.090   1.186  14.169  0.00  0.00    +0.000 C 
BRANCH  83  84
ATOM     84  C   UNL     1     -12.873   0.414  13.675  0.00  0.00    +0.000 C 
BRANCH  84  85
ATOM     85  C   UNL     1     -13.087  -1.039  13.940  0.00  0.00    +0.000 C 
BRANCH  85  86
ATOM     86  C   UNL     1     -13.835  -1.635  12.742  0.00  0.00    +0.000 C 
BRANCH  86  87
ATOM     87  C   UNL     1     -13.097  -1.271  11.464  0.00  0.00    +0.000 C 
BRANCH  87  88
ATOM     88  C   UNL     1     -14.147  -0.912  10.431  0.00  0.00    +0.000 C 
BRANCH  88  89
ATOM     89  C   UNL     1     -15.492  -0.841  11.133  0.00  0.00    +0.000 C 
BRANCH  89  90
ATOM     90  C   UNL     1     -16.225   0.399  10.719  0.00  0.00    +0.000 C 
ATOM     91  C   UNL     1     -17.281   0.751  11.751  0.00  0.00    +0.000 C 
ENDBRANCH  89  90
ENDBRANCH  88  89
ENDBRANCH  87  88
ENDBRANCH  86  87
ENDBRANCH  85  86
ENDBRANCH  84  85
ENDBRANCH  83  84
ENDBRANCH  82  83
ENDBRANCH  81  82
ENDBRANCH  80  81
ENDBRANCH  79  80
ENDBRANCH  78  79
ENDBRANCH  77  78
ENDBRANCH  76  77
ENDBRANCH  75  76
ENDBRANCH  74  75
ENDBRANCH  72  74
ENDBRANCH  71  72
ENDBRANCH  70  71
ENDBRANCH  69  70
ENDBRANCH  68  69
ENDBRANCH  67  68
ENDBRANCH  66  67
ENDBRANCH  65  66
ENDBRANCH  64  65
ENDBRANCH  63  64
ENDBRANCH  62  63
ENDBRANCH  61  62
ENDBRANCH  60  61
ENDBRANCH  59  60
ENDBRANCH  58  59
ENDBRANCH  57  58
ENDBRANCH  56  57
ENDBRANCH   1  56
TORSDOF 81
BEGIN_RES LEU A  10
REMARK  2 active torsions:
REMARK  status: ('A' for Active; 'I' for Inactive)
REMARK    1  A    between atoms: CA   and  CB  
REMARK    2  A    between atoms: CB   and  CG  
ROOT
ATOM      1  CA  LEU A  10     -10.775  -4.871   5.898  1.00 25.14     0.177 C 
ENDROOT
BRANCH   1   2
ATOM      2  CB  LEU A  10     -12.191  -4.387   6.226  1.00 17.87     0.038 C 
BRANCH   2   3
ATOM      3  CG  LEU A  10     -12.367  -2.868   6.178  1.00 24.95    -0.020 C 
ATOM      4  CD2 LEU A  10     -13.615  -2.500   6.907  1.00 26.38     0.009 C 
ATOM      5  CD1 LEU A  10     -12.420  -2.372   4.744  1.00 28.12     0.009 C 
ENDBRANCH   2   3
ENDBRANCH   1   2
END_RES LEU A  10
BEGIN_RES CYS A  12
REMARK  2 active torsions:
REMARK  status: ('A' for Active; 'I' for Inactive)
REMARK    3  A    between atoms: CA   and  CB  
REMARK    4  A    between atoms: CB   and  SG  
ROOT
ATOM      6  CA  CYS A  12      -8.555   0.470   8.750  1.00 23.16     0.185 C 
ENDROOT
BRANCH   6   7
ATOM      7  CB  CYS A  12      -9.828   0.763   9.555  1.00 20.43     0.105 C 
BRANCH   7   8
ATOM      8  SG  CYS A  12     -11.352   0.989   8.588  1.00 24.64    -0.180 SA
ATOM      9  H04 CYS A  12     -11.204   2.028   7.755  1.00 24.64     0.101 HD
ENDBRANCH   7   8
ENDBRANCH   6   7
END_RES CYS A  12
BEGIN_RES GLN A  14
REMARK  3 active torsions:
REMARK  status: ('A' for Active; 'I' for Inactive)
REMARK    5  A    between atoms: CA   and  CB  
REMARK    6  A    between atoms: CB   and  CG  
REMARK    7  A    between atoms: CG   and  CD  
REMARK       I    between atoms: CD   and  NE2 
ROOT
ATOM     10  CA  GLN A  14      -4.645   5.402  11.377  1.00 10.43     0.177 C 
ENDROOT
BRANCH  10  11
ATOM     11  CB  GLN A  14      -5.541   5.549  12.608  1.00 14.45     0.044 C 
BRANCH  11  12
ATOM     12  CG  GLN A  14      -6.524   6.694  12.523  1.00 13.74     0.105 C 
BRANCH  12  13
ATOM     13  CD  GLN A  14      -5.990   7.961  13.147  1.00 16.29     0.215 C 
ATOM     14  NE2 GLN A  14      -5.361   8.791  12.344  1.00  8.57    -0.370 N 
ATOM     15  H06 GLN A  14      -4.984   9.655  12.705  1.00  8.57     0.159 HD
ATOM     16  H07 GLN A  14      -5.255   8.564  11.365  1.00  8.57     0.159 HD
ATOM     17  OE1 GLN A  14      -6.145   8.191  14.336  1.00 23.55    -0.274 OA
ENDBRANCH  12  13
ENDBRANCH  11  12
ENDBRANCH  10  11
END_RES GLN A  14
BEGIN_RES SER A  16
REMARK  2 active torsions:
REMARK  status: ('A' for Active; 'I' for Inactive)
REMARK    8  A    between atoms: CA   and  CB  
REMARK    9  A    between atoms: CB   and  OG  
ROOT
ATOM     18  CA  SER A  16      -1.305  10.019  14.282  1.00  2.34     0.200 C 
ENDROOT
BRANCH  18  19
ATOM     19  CB  SER A  16      -2.242   9.935  15.479  1.00  3.12     0.199 C 
BRANCH  19  20
ATOM     20  OG  SER A  16      -3.474   9.347  15.100  1.00  1.00    -0.398 OA
ATOM     21  H04 SER A  16      -4.106   9.437  15.817  1.00  1.00     0.209 HD
ENDBRANCH  19  20
ENDBRANCH  18  19
END_RES SER A  16
BEGIN_RES LEU A  32
REMARK  2 active torsions:
REMARK  status: ('A' for Active; 'I' for Inactive)
REMARK   10  A    between atoms: CA   and  CB  
REMARK   11  A    between atoms: CB   and  CG  
ROOT
ATOM     22  CA  LEU A  32     -10.272  -4.106   1.587  1.00 16.16     0.177 C 
ENDROOT
BRANCH  22  23
ATOM     23  CB  LEU A  32     -11.613  -3.858   0.880  1.00 12.35     0.038 C 
BRANCH  23  24
ATOM     24  CG  LEU A  32     -12.584  -5.043   1.058  1.00  9.77    -0.020 C 
ATOM     25  CD1 LEU A  32     -13.032  -5.144   2.496  1.00  4.35     0.009 C 
ATOM     26  CD2 LEU A  32     -13.784  -4.893   0.161  1.00 10.60     0.009 C 
ENDBRANCH  23  24
ENDBRANCH  22  23
END_RES LEU A  32
BEGIN_RES HIS A  38
REMARK  2 active torsions:
REMARK  status: ('A' for Active; 'I' for Inactive)
REMARK   12  A    between atoms: CA   and  CB  
REMARK   13  A    between atoms: CB   and  CG  
ROOT
ATOM     27  CA  HIS A  38     -10.959   4.941   1.621  1.00 16.94     0.182 C 
ENDROOT
BRANCH  27  28
ATOM     28  CB  HIS A  38     -11.810   4.840   2.881  1.00 15.47     0.095 C 
BRANCH  28  29
ATOM     29  CG  HIS A  38     -13.281   4.814   2.616  1.00 18.62     0.053 A 
ATOM     30  CD2 HIS A  38     -14.149   5.813   2.325  1.00 15.06     0.116 A 
ATOM     31  NE2 HIS A  38     -15.379   5.235   2.144  1.00 18.12    -0.359 N 
ATOM     32  CE1 HIS A  38     -15.273   3.932   2.319  1.00 14.78     0.207 A 
ATOM     33  H06 HIS A  38     -16.230   5.729   1.915  1.00 18.12     0.166 HD
ATOM     34  ND1 HIS A  38     -14.018   3.651   2.605  1.00 16.58    -0.247 NA
ENDBRANCH  28  29
ENDBRANCH  27  28
END_RES HIS A  38
BEGIN_RES TRP A  63
REMARK  2 active torsions:
REMARK  status: ('A' for Active; 'I' for Inactive)
REMARK   14  A    between atoms: CA   and  CB  
REMARK   15  A    between atoms: CB   and  CG  
ROOT
ATOM     35  CA  TRP A  63     -22.437   6.257   6.543  1.00 27.04     0.181 C 
ENDROOT
BRANCH  35  36
ATOM     36  CB  TRP A  63     -22.360   6.642   5.068  1.00 31.37     0.075 C 
BRANCH  36  37
ATOM     37  CG  TRP A  63     -20.973   6.556   4.467  1.00 34.37    -0.028 A 
ATOM     38  CD2 TRP A  63     -20.241   7.607   3.820  1.00 33.79    -0.002 A 
ATOM     39  CE3 TRP A  63     -20.529   8.933   3.492  1.00 32.99     0.014 A 
ATOM     40  CE2 TRP A  63     -18.971   7.086   3.487  1.00 35.84     0.042 A 
ATOM     41  CZ3 TRP A  63     -19.559   9.688   2.849  1.00 32.93     0.001 A 
ATOM     42  CH2 TRP A  63     -18.306   9.141   2.530  1.00 39.24     0.002 A 
ATOM     43  CZ2 TRP A  63     -17.994   7.845   2.841  1.00 37.99     0.030 A 
ATOM     44  NE1 TRP A  63     -18.940   5.786   3.909  1.00 37.98    -0.365 N 
ATOM     45  H06 TRP A  63     -18.158   5.154   3.808  1.00 37.98     0.165 HD
ATOM     46  CD1 TRP A  63     -20.145   5.478   4.493  1.00 38.16     0.096 A 
ENDBRANCH  36  37
ENDBRANCH  35  36
END_RES TRP A  63
BEGIN_RES LEU A  66
REMARK  2 active torsions:
REMARK  status: ('A' for Active; 'I' for Inactive)
REMARK   16  A    between atoms: CA   and  CB  
REMARK   17  A    between atoms: CB   and  CG  
ROOT
ATOM     47  CA  LEU A  66     -20.004   6.489  11.120  1.00 10.90     0.177 C 
ENDROOT
BRANCH  47  48
ATOM     48  CB  LEU A  66     -19.626   5.453  10.069  1.00 13.57     0.038 C 
BRANCH  48  49
ATOM     49  CG  LEU A  66     -19.563   3.993  10.517  1.00  8.73    -0.020 C 
ATOM     50  CD1 LEU A  66     -19.694   3.891  12.014  1.00 14.23     0.009 C 
ATOM     51  CD2 LEU A  66     -20.684   3.240   9.847  1.00  1.92     0.009 C 
ENDBRANCH  48  49
ENDBRANCH  47  48
END_RES LEU A  66
BEGIN_RES PHE A  70
REMARK  2 active torsions:
REMARK  status: ('A' for Active; 'I' for Inactive)
REMARK   18  A    between atoms: CA   and  CB  
REMARK   19  A    between atoms: CB   and  CG  
ROOT
ATOM     52  CA  PHE A  70     -14.974   9.434  13.165  1.00  8.78     0.180 C 
ENDROOT
BRANCH  52  53
ATOM     53  CB  PHE A  70     -14.707   9.132  11.681  1.00  6.33     0.073 C 
BRANCH  53  54
ATOM     54  CG  PHE A  70     -13.903   7.880  11.461  1.00  3.42    -0.056 A 
ATOM     55  CD1 PHE A  70     -13.617   7.429  10.181  1.00 13.88     0.007 A 
ATOM     56  CE1 PHE A  70     -12.906   6.232   9.982  1.00 12.71     0.001 A 
ATOM     57  CZ  PHE A  70     -12.476   5.481  11.076  1.00  4.21     0.000 A 
ATOM     58  CE2 PHE A  70     -12.753   5.922  12.357  1.00  2.83     0.001 A 
ATOM     59  CD2 PHE A  70     -13.464   7.119  12.545  1.00  1.00     0.007 A 
ENDBRANCH  53  54
ENDBRANCH  52  53
END_RES PHE A  70
BEGIN_RES TYR A  73
REMARK  3 active torsions:
REMARK  status: ('A' for Active; 'I' for Inactive)
REMARK   20  A    between atoms: CA   and  CB  
REMARK   21  A    between atoms: CB   and  CG  
REMARK   22  A    between atoms: CZ   and  OH  
ROOT
ATOM     60  CA  TYR A  73     -13.212  10.166  17.260  1.00 12.17     0.180 C 
ENDROOT
BRANCH  60  61
ATOM     61  CB  TYR A  73     -13.301   8.846  16.517  1.00 12.84     0.073 C 
BRANCH  61  62
ATOM     62  CG  TYR A  73     -12.014   8.097  16.502  1.00 15.89    -0.056 A 
ATOM     63  CD1 TYR A  73     -11.458   7.616  17.666  1.00 16.00     0.010 A 
ATOM     64  CE1 TYR A  73     -10.237   6.941  17.657  1.00 13.55     0.037 A 
ATOM     65  CZ  TYR A  73      -9.576   6.754  16.460  1.00 18.13     0.065 A 
ATOM     66  CE2 TYR A  73     -10.111   7.223  15.283  1.00 15.89     0.037 A 
ATOM     67  CD2 TYR A  73     -11.328   7.893  15.310  1.00 21.86     0.010 A 
BRANCH  65  68
ATOM     68  OH  TYR A  73      -8.376   6.087  16.428  1.00 12.12    -0.361 OA
ATOM     69  H08 TYR A  73      -8.140   5.808  17.316  1.00 12.12     0.217 HD
ENDBRANCH  65  68
ENDBRANCH  61  62
ENDBRANCH  60  61
END_RES TYR A  73
BEGIN_RES PHE A  77
REMARK  2 active torsions:
REMARK  status: ('A' for Active; 'I' for Inactive)
REMARK   23  A    between atoms: CA   and  CB  
REMARK   24  A    between atoms: CB   and  CG  
ROOT
ATOM     70  CA  PHE A  77      -8.400  10.581  20.110  1.00 17.17     0.180 C 
ENDROOT
BRANCH  70  71
ATOM     71  CB  PHE A  77      -8.228   9.750  18.851  1.00 10.44     0.073 C 
BRANCH  71  72
ATOM     72  CG  PHE A  77      -7.236   8.638  18.993  1.00  6.07    -0.056 A 
ATOM     73  CD2 PHE A  77      -6.207   8.500  18.091  1.00  9.61     0.007 A 
ATOM     74  CE2 PHE A  77      -5.280   7.471  18.216  1.00  1.00     0.001 A 
ATOM     75  CZ  PHE A  77      -5.385   6.570  19.262  1.00  1.92     0.000 A 
ATOM     76  CE1 PHE A  77      -6.408   6.696  20.174  1.00  9.25     0.001 A 
ATOM     77  CD1 PHE A  77      -7.332   7.731  20.036  1.00  9.63     0.007 A 
ENDBRANCH  71  72
ENDBRANCH  70  71
END_RES PHE A  77
BEGIN_RES LEU A  96
REMARK  2 active torsions:
REMARK  status: ('A' for Active; 'I' for Inactive)
REMARK   25  A    between atoms: CA   and  CB  
REMARK   26  A    between atoms: CB   and  CG  
ROOT
ATOM     78  CA  LEU A  96       0.717   6.481  17.359  1.00 16.08     0.177 C 
ENDROOT
BRANCH  78  79
ATOM     79  CB  LEU A  96      -0.370   7.101  18.230  1.00 18.83     0.038 C 
BRANCH  79  80
ATOM     80  CG  LEU A  96      -0.158   6.922  19.733  1.00 19.03    -0.020 C 
ATOM     81  CD1 LEU A  96      -1.399   7.386  20.459  1.00 28.17     0.009 C 
ATOM     82  CD2 LEU A  96       0.074   5.466  20.064  1.00 22.01     0.009 C 
ENDBRANCH  79  80
ENDBRANCH  78  79
END_RES LEU A  96
BEGIN_RES VAL A  98
REMARK  1 active torsions:
REMARK  status: ('A' for Active; 'I' for Inactive)
REMARK   27  A    between atoms: CA   and  CB  
ROOT
ATOM     83  CA  VAL A  98      -3.928   2.082  14.897  1.00 19.83     0.180 C 
ENDROOT
BRANCH  83  84
ATOM     84  CB  VAL A  98      -5.203   2.807  15.281  1.00 17.87     0.009 C 
ATOM     85  CG2 VAL A  98      -5.157   3.199  16.735  1.00 29.90     0.012 C 
ATOM     86  CG1 VAL A  98      -6.396   1.917  15.002  1.00 14.79     0.012 C 
ENDBRANCH  83  84
END_RES VAL A  98
BEGIN_RES ASN A 112
REMARK  2 active torsions:
REMARK  status: ('A' for Active; 'I' for Inactive)
REMARK   28  A    between atoms: CA   and  CB  
REMARK   29  A    between atoms: CB   and  CG  
REMARK       I    between atoms: CG   and  ND2 
ROOT
ATOM     87  CA  ASN A 112     -11.790  -8.793  14.069  1.00 37.70     0.185 C 
ENDROOT
BRANCH  87  88
ATOM     88  CB  ASN A 112     -12.992  -7.945  14.465  1.00 26.24     0.137 C 
BRANCH  88  89
ATOM     89  CG  ASN A 112     -13.837  -8.583  15.545  1.00 21.77     0.217 C 
ATOM     90  ND2 ASN A 112     -15.000  -9.103  15.151  1.00  9.31    -0.370 N 
ATOM     91  H04 ASN A 112     -15.611  -9.542  15.825  1.00  9.31     0.159 HD
ATOM     92  H05 ASN A 112     -15.269  -9.059  14.178  1.00  9.31     0.159 HD
ATOM     93  OD1 ASN A 112     -13.456  -8.605  16.721  1.00 21.61    -0.274 OA
ENDBRANCH  88  89
ENDBRANCH  87  88
END_RES ASN A 112
BEGIN_RES PHE A 114
REMARK  2 active torsions:
REMARK  status: ('A' for Active; 'I' for Inactive)
REMARK   30  A    between atoms: CA   and  CB  
REMARK   31  A    between atoms: CB   and  CG  
ROOT
ATOM     94  CA  PHE A 114      -7.754  -3.619  17.012  1.00 26.06     0.180 C 
ENDROOT
BRANCH  94  95
ATOM     95  CB  PHE A 114      -8.890  -3.080  17.867  1.00 19.95     0.073 C 
BRANCH  95  96
ATOM     96  CG  PHE A 114      -9.156  -1.625  17.650  1.00 17.65    -0.056 A 
ATOM     97  CD1 PHE A 114      -8.114  -0.702  17.657  1.00 13.01     0.007 A 
ATOM     98  CE1 PHE A 114      -8.363   0.653  17.485  1.00  6.74     0.001 A 
ATOM     99  CZ  PHE A 114      -9.666   1.105  17.300  1.00  6.27     0.000 A 
ATOM    100  CE2 PHE A 114     -10.711   0.195  17.291  1.00 17.36     0.001 A 
ATOM    101  CD2 PHE A 114     -10.453  -1.169  17.466  1.00 18.39     0.007 A 
ENDBRANCH  95  96
ENDBRANCH  94  95
END_RES PHE A 114
BEGIN_RES VAL A 116
REMARK  1 active torsions:
REMARK  status: ('A' for Active; 'I' for Inactive)
REMARK   32  A    between atoms: CA   and  CB  
ROOT
ATOM    102  CA  VAL A 116      -2.467   0.283  18.565  1.00 13.48     0.180 C 
ENDROOT
BRANCH 102 103
ATOM    103  CB  VAL A 116      -3.101   1.238  19.599  1.00 20.86     0.009 C 
ATOM    104  CG1 VAL A 116      -2.709   2.681  19.270  1.00 25.01     0.012 C 
ATOM    105  CG2 VAL A 116      -4.601   1.065  19.643  1.00 25.34     0.012 C 
ENDBRANCH 102 103
END_RES VAL A 116
BEGIN_RES ILE A 123
REMARK  2 active torsions:
REMARK  status: ('A' for Active; 'I' for Inactive)
REMARK   33  A    between atoms: CA   and  CB  
REMARK   34  A    between atoms: CB   and  CG1 
ROOT
ATOM    106  CA  ILE A 123       1.557  -1.626  23.222  1.00 15.07     0.180 C 
ENDROOT
BRANCH 106 107
ATOM    107  CB  ILE A 123       1.697  -0.112  23.461  1.00 14.41     0.013 C 
ATOM    108  CG2 ILE A 123       3.100   0.207  23.946  1.00 18.35     0.012 C 
BRANCH 107 109
ATOM    109  CG1 ILE A 123       1.395   0.657  22.178  1.00 15.23     0.002 C 
ATOM    110  CD1 ILE A 123       0.234   1.615  22.304  1.00 14.67     0.005 C 
ENDBRANCH 107 109
ENDBRANCH 106 107
END_RES ILE A 123
BEGIN_RES LEU A 124
REMARK  2 active torsions:
REMARK  status: ('A' for Active; 'I' for Inactive)
REMARK   35  A    between atoms: CA   and  CB  
REMARK   36  A    between atoms: CB   and  CG  
ROOT
ATOM    111  CA  LEU A 124      -2.057  -2.686  23.524  1.00 11.86     0.177 C 
ENDROOT
BRANCH 111 112
ATOM    112  CB  LEU A 124      -2.698  -1.652  24.429  1.00 14.60     0.038 C 
BRANCH 112 113
ATOM    113  CG  LEU A 124      -2.574  -0.244  23.866  1.00 16.19    -0.020 C 
ATOM    114  CD1 LEU A 124      -3.956   0.220  23.368  1.00 22.07     0.009 C 
ATOM    115  CD2 LEU A 124      -2.021   0.674  24.926  1.00  9.12     0.009 C 
ENDBRANCH 112 113
ENDBRANCH 111 112
END_RES LEU A 124
BEGIN_RES PHE A 126
REMARK  2 active torsions:
REMARK  status: ('A' for Active; 'I' for Inactive)
REMARK   37  A    between atoms: CA   and  CB  
REMARK   38  A    between atoms: CB   and  CG  
ROOT
ATOM    116  CA  PHE A 126      -8.784  -4.792  22.233  1.00 23.15     0.180 C 
ENDROOT
BRANCH 116 117
ATOM    117  CB  PHE A 126      -9.823  -4.011  21.461  1.00 20.65     0.073 C 
BRANCH 117 118
ATOM    118  CG  PHE A 126     -10.945  -3.536  22.298  1.00 23.65    -0.056 A 
ATOM    119  CD2 PHE A 126     -12.213  -4.071  22.149  1.00 36.63     0.007 A 
ATOM    120  CE2 PHE A 126     -13.276  -3.620  22.944  1.00 36.27     0.001 A 
ATOM    121  CZ  PHE A 126     -13.060  -2.629  23.890  1.00 18.06     0.000 A 
ATOM    122  CE1 PHE A 126     -11.796  -2.095  24.043  1.00  5.50     0.001 A 
ATOM    123  CD1 PHE A 126     -10.744  -2.551  23.249  1.00 15.29     0.007 A 
ENDBRANCH 117 118
ENDBRANCH 116 117
END_RES PHE A 126
BEGIN_RES TRP A 131
REMARK  2 active torsions:
REMARK  status: ('A' for Active; 'I' for Inactive)
REMARK   39  A    between atoms: CA   and  CB  
REMARK   40  A    between atoms: CB   and  CG  
ROOT
ATOM    124  CA  TRP A 131      -8.096  -3.335  26.542  1.00 14.52     0.181 C 
ENDROOT
BRANCH 124 125
ATOM    125  CB  TRP A 131      -7.651  -1.877  26.607  1.00 13.06     0.075 C 
BRANCH 125 126
ATOM    126  CG  TRP A 131      -8.033  -1.056  25.395  1.00 16.97    -0.028 A 
ATOM    127  CD2 TRP A 131      -9.110  -0.120  25.306  1.00 11.34    -0.002 A 
ATOM    128  CE2 TRP A 131      -9.097   0.417  24.003  1.00  5.87     0.042 A 
ATOM    129  CE3 TRP A 131     -10.088   0.317  26.206  1.00  3.80     0.014 A 
ATOM    130  CZ2 TRP A 131     -10.023   1.372  23.579  1.00  1.35     0.030 A 
ATOM    131  NE1 TRP A 131      -8.060  -0.167  23.328  1.00 13.90    -0.365 N 
ATOM    132  CH2 TRP A 131     -10.970   1.783  24.484  1.00  1.00     0.002 A 
ATOM    133  CZ3 TRP A 131     -11.009   1.261  25.791  1.00  1.00     0.001 A 
ATOM    134  CD1 TRP A 131      -7.425  -1.051  24.170  1.00 17.22     0.096 A 
ATOM    135  H07 TRP A 131      -7.803   0.020  22.370  1.00 13.90     0.165 HD
ENDBRANCH 125 126
ENDBRANCH 124 125
END_RES TRP A 131
BEGIN_RES LEU A 148
REMARK  2 active torsions:
REMARK  status: ('A' for Active; 'I' for Inactive)
REMARK   41  A    between atoms: CA   and  CB  
REMARK   42  A    between atoms: CB   and  CG  
ROOT
ATOM    136  CA  LEU A 148      -9.018   3.259  29.295  1.00 16.99     0.177 C 
ENDROOT
BRANCH 136 137
ATOM    137  CB  LEU A 148      -8.166   2.574  28.236  1.00  6.39     0.038 C 
BRANCH 137 138
ATOM    138  CG  LEU A 148      -7.974   3.192  26.866  1.00  1.00    -0.020 C 
ATOM    139  CD2 LEU A 148      -6.803   2.562  26.170  1.00  1.00     0.009 C 
ATOM    140  CD1 LEU A 148      -7.750   4.683  27.045  1.00  2.71     0.009 C 
ENDBRANCH 137 138
ENDBRANCH 136 137
END_RES LEU A 148
BEGIN_RES THR A 154
REMARK  2 active torsions:
REMARK  status: ('A' for Active; 'I' for Inactive)
REMARK   43  A    between atoms: CA   and  CB  
REMARK   44  A    between atoms: CB   and  OG1 
ROOT
ATOM    141  CA  THR A 154     -15.990   3.959  24.426  1.00 20.45     0.205 C 
ENDROOT
BRANCH 141 142
ATOM    142  CB  THR A 154     -14.777   4.829  24.694  1.00 16.79     0.146 C 
ATOM    143  CG2 THR A 154     -13.610   4.379  23.836  1.00 20.24     0.042 C 
BRANCH 142 144
ATOM    144  OG1 THR A 154     -15.097   6.187  24.364  1.00 18.84    -0.393 OA
ATOM    145  H06 THR A 154     -14.464   6.775  24.781  1.00 18.84     0.210 HD
ENDBRANCH 142 144
ENDBRANCH 141 142
END_RES THR A 154
BEGIN_RES VAL A 158
REMARK  1 active torsions:
REMARK  status: ('A' for Active; 'I' for Inactive)
REMARK   45  A    between atoms: CA   and  CB  
ROOT
ATOM    146  CA  VAL A 158     -15.487  -0.189  19.892  1.00 15.49     0.180 C 
ENDROOT
BRANCH 146 147
ATOM    147  CB  VAL A 158     -14.291  -0.273  20.822  1.00  6.52     0.009 C 
ATOM    148  CG1 VAL A 158     -13.201  -1.131  20.222  1.00  1.00     0.012 C 
ATOM    149  CG2 VAL A 158     -13.789   1.113  21.085  1.00  5.99     0.012 C 
ENDBRANCH 146 147
END_RES VAL A 158
BEGIN_RES LEU A 161
REMARK  2 active torsions:
REMARK  status: ('A' for Active; 'I' for Inactive)
REMARK   46  A    between atoms: CA   and  CB  
REMARK   47  A    between atoms: CB   and  CG  
ROOT
ATOM    150  CA  LEU A 161     -18.031  -1.858  15.935  1.00 13.31     0.177 C 
ENDROOT
BRANCH 150 151
ATOM    151  CB  LEU A 161     -17.046  -0.706  16.001  1.00 14.13     0.038 C 
BRANCH 151 152
ATOM    152  CG  LEU A 161     -17.527   0.626  15.440  1.00 19.39    -0.020 C 
ATOM    153  CD2 LEU A 161     -17.054   1.763  16.313  1.00 27.75     0.009 C 
ATOM    154  CD1 LEU A 161     -19.031   0.614  15.379  1.00 18.59     0.009 C 
ENDBRANCH 151 152
ENDBRANCH 150 151
END_RES LEU A 161
BEGIN_RES GLN A 168
REMARK  3 active torsions:
REMARK  status: ('A' for Active; 'I' for Inactive)
REMARK   48  A    between atoms: CA   and  CB  
REMARK   49  A    between atoms: CB   and  CG  
REMARK   50  A    between atoms: CG   and  CD  
REMARK       I    between atoms: CD   and  NE2 
ROOT
ATOM    155  CA  GLN A 168     -22.035  -6.020   8.155  1.00 30.94     0.177 C 
ENDROOT
BRANCH 155 156
ATOM    156  CB  GLN A 168     -23.054  -5.218   8.946  1.00 41.76     0.044 C 
BRANCH 156 157
ATOM    157  CG  GLN A 168     -24.488  -5.528   8.611  1.00 61.20     0.105 C 
BRANCH 157 158
ATOM    158  CD  GLN A 168     -25.129  -4.424   7.794  1.00 75.49     0.215 C 
ATOM    159  NE2 GLN A 168     -26.016  -3.657   8.431  1.00 85.00    -0.370 N 
ATOM    160  H06 GLN A 168     -26.480  -2.906   7.940  1.00 85.00     0.159 HD
ATOM    161  H07 GLN A 168     -26.224  -3.829   9.405  1.00 85.00     0.159 HD
ATOM    162  OE1 GLN A 168     -24.839  -4.261   6.600  1.00 73.64    -0.274 OA
ENDBRANCH 157 158
ENDBRANCH 156 157
ENDBRANCH 155 156
END_RES GLN A 168
ENDMDL
MODEL 8
REMARK VINA RESULT:      -6.5      1.769      3.173
REMARK  Name = human_CD1d_tween80_pred.rank_0
REMARK  81 active torsions:
REMARK  status: ('A' for Active; 'I' for Inactive)
REMARK    1  A    between atoms: C_1  and  C_3
REMARK    2  A    between atoms: C_3  and  O_4
REMARK    3  A    between atoms: O_4  and  C_5
REMARK    4  A    between atoms: C_5  and  C_7
REMARK    5  A    between atoms: O_6  and  C_7
REMARK    6  A    between atoms: O_6  and  C_9
REMARK    7  A    between atoms: O_8  and  C_11
REMARK    8  A    between atoms: O_8  and  C_13
REMARK    9  A    between atoms: C_9  and  C_11
REMARK   10  A    between atoms: O_10  and  C_15
REMARK   11  A    between atoms: O_10  and  C_17
REMARK   12  A    between atoms: O_12  and  C_19
REMARK   13  A    between atoms: O_12  and  C_21
REMARK   14  A    between atoms: C_13  and  C_15
REMARK   15  A    between atoms: O_14  and  C_23
REMARK   16  A    between atoms: O_14  and  C_25
REMARK   17  A    between atoms: O_16  and  C_27
REMARK   18  A    between atoms: O_16  and  C_29
REMARK   19  A    between atoms: C_17  and  C_19
REMARK   20  A    between atoms: O_18  and  C_31
REMARK   21  A    between atoms: O_18  and  C_33
REMARK   22  A    between atoms: O_20  and  C_35
REMARK   23  A    between atoms: O_20  and  C_37
REMARK   24  A    between atoms: C_21  and  C_23
REMARK   25  A    between atoms: C_21  and  C_67
REMARK   26  A    between atoms: O_22  and  C_39
REMARK   27  A    between atoms: O_22  and  C_41
REMARK   28  A    between atoms: O_24  and  C_43
REMARK   29  A    between atoms: O_24  and  C_45
REMARK   30  A    between atoms: C_25  and  C_27
REMARK   31  A    between atoms: O_28  and  C_69
REMARK   32  A    between atoms: O_28  and  C_70
REMARK   33  A    between atoms: C_29  and  C_31
REMARK   34  A    between atoms: O_30  and  C_71
REMARK   35  A    between atoms: O_30  and  C_72
REMARK   36  A    between atoms: O_32  and  C_73
REMARK   37  A    between atoms: O_32  and  C_74
REMARK   38  A    between atoms: C_33  and  C_35
REMARK   39  A    between atoms: O_34  and  C_75
REMARK   40  A    between atoms: O_34  and  C_76
REMARK   41  A    between atoms: O_36  and  C_77
REMARK   42  A    between atoms: O_36  and  C_78
REMARK   43  A    between atoms: C_37  and  C_39
REMARK   44  A    between atoms: O_40  and  C_80
REMARK   45  A    between atoms: O_40  and  C_81
REMARK   46  A    between atoms: C_41  and  C_43
REMARK   47  A    between atoms: O_42  and  C_82
REMARK   48  A    between atoms: O_42  and  C_83
REMARK   49  A    between atoms: O_44  and  C_84
REMARK   50  A    between atoms: O_44  and  C_85
REMARK   51  A    between atoms: C_45  and  C_47
REMARK   52  A    between atoms: O_46  and  C_86
REMARK   53  A    between atoms: O_46  and  C_87
REMARK   54  A    between atoms: C_47  and  C_49
REMARK   55  A    between atoms: O_48  and  C_88
REMARK   56  A    between atoms: O_48  and  C_89
REMARK   57  A    between atoms: C_49  and  C_51
REMARK   58  A    between atoms: C_51  and  C_53
REMARK   59  A    between atoms: C_53  and  C_54
REMARK   60  A    between atoms: C_54  and  C_55
REMARK   61  A    between atoms: C_55  and  C_56
REMARK   62  A    between atoms: C_56  and  C_57
REMARK   63  A    between atoms: C_57  and  C_58
REMARK   64  A    between atoms: C_58  and  C_59
REMARK   65  A    between atoms: C_59  and  C_60
REMARK   66  A    between atoms: C_60  and  C_61
REMARK   67  A    between atoms: C_61  and  C_62
REMARK   68  A    between atoms: C_62  and  C_63
REMARK   69  A    between atoms: C_63  and  C_64
REMARK   70  A    between atoms: C_64  and  C_65
REMARK   71  A    between atoms: C_67  and  C_68
REMARK   72  A    between atoms: C_70  and  C_71
REMARK   73  A    between atoms: C_72  and  C_73
REMARK   74  A    between atoms: C_74  and  C_75
REMARK   75  A    between atoms: C_76  and  C_77
REMARK   76  A    between atoms: C_78  and  C_79
REMARK   77  A    between atoms: C_81  and  C_82
REMARK   78  A    between atoms: C_83  and  C_84
REMARK   79  A    between atoms: C_85  and  C_86
REMARK   80  A    between atoms: C_87  and  C_88
REMARK   81  A    between atoms: C_89  and  C_90
REMARK                            x       y       z     vdW  Elec       q    Type
REMARK                         _______ _______ _______ _____ _____    ______ ____
ROOT
ATOM      1  C   UNL     1     -13.947   4.768  19.186  0.00  0.00    +0.000 C 
ENDROOT
BRANCH   1   2
ATOM      2  C   UNL     1     -12.816   4.622  20.408  0.00  0.00    +0.000 C 
BRANCH   2   4
ATOM      3  O   UNL     1     -10.609   5.595  20.344  0.00  0.00    +0.000 OA
ATOM      4  C   UNL     1     -11.960   5.841  20.515  0.00  0.00    +0.000 C 
ATOM      5  C   UNL     1     -11.875   6.402  21.961  0.00  0.00    +0.000 C 
ATOM      6  C   UNL     1     -10.588   7.269  21.835  0.00  0.00    +0.000 C 
ATOM      7  C   UNL     1      -9.772   6.571  20.831  0.00  0.00    +0.000 C 
BRANCH   6   8
ATOM      8  O   UNL     1      -9.900   7.193  23.075  0.00  0.00    +0.000 OA
BRANCH   8   9
ATOM      9  C   UNL     1      -8.746   6.321  23.076  0.00  0.00    +0.000 C 
BRANCH   9  10
ATOM     10  C   UNL     1      -7.762   6.809  24.107  0.00  0.00    +0.000 C 
BRANCH  10  11
ATOM     11  O   UNL     1      -6.694   7.476  23.460  0.00  0.00    +0.000 OA
BRANCH  11  12
ATOM     12  C   UNL     1      -5.440   6.995  23.905  0.00  0.00    +0.000 C 
BRANCH  12  13
ATOM     13  C   UNL     1      -5.192   5.559  23.508  0.00  0.00    +0.000 C 
BRANCH  13  14
ATOM     14  O   UNL     1      -4.749   4.873  24.684  0.00  0.00    +0.000 OA
BRANCH  14  15
ATOM     15  C   UNL     1      -3.763   3.931  24.419  0.00  0.00    +0.000 C 
BRANCH  15  16
ATOM     16  C   UNL     1      -2.371   4.514  24.782  0.00  0.00    +0.000 C 
BRANCH  16  17
ATOM     17  O   UNL     1      -1.678   4.666  23.598  0.00  0.00    +0.000 OA
BRANCH  17  18
ATOM     18  C   UNL     1      -0.369   5.235  23.783  0.00  0.00    +0.000 C 
BRANCH  18  19
ATOM     19  C   UNL     1      -0.333   5.816  25.196  0.00  0.00    +0.000 C 
BRANCH  19  20
ATOM     20  O   UNL     1      -0.023   7.156  25.165  0.00  0.00    +0.000 OA
BRANCH  20  21
ATOM     21  C   UNL     1       1.220   7.385  24.559  0.00  0.00    +0.000 C 
BRANCH  21  23
ATOM     22  O   UNL     1       0.469   9.586  25.068  0.00  0.00    +0.000 OA
ATOM     23  C   UNL     1       1.400   8.844  24.250  0.00  0.00    +0.000 C 
ENDBRANCH  21  23
ENDBRANCH  20  21
ENDBRANCH  19  20
ENDBRANCH  18  19
ENDBRANCH  17  18
ENDBRANCH  16  17
ENDBRANCH  15  16
ENDBRANCH  14  15
ENDBRANCH  13  14
ENDBRANCH  12  13
ENDBRANCH  11  12
ENDBRANCH  10  11
ENDBRANCH   9  10
ENDBRANCH   8   9
ENDBRANCH   6   8
BRANCH   5  24
ATOM     24  O   UNL     1     -12.998   7.204  22.245  0.00  0.00    +0.000 OA
BRANCH  24  25
ATOM     25  C   UNL     1     -12.666   8.519  22.650  0.00  0.00    +0.000 C 
BRANCH  25  26
ATOM     26  C   UNL     1     -13.472   8.969  23.850  0.00  0.00    +0.000 C 
BRANCH  26  27
ATOM     27  O   UNL     1     -13.603  10.374  23.794  0.00  0.00    +0.000 OA
BRANCH  27  28
ATOM     28  C   UNL     1     -13.076  11.027  24.938  0.00  0.00    +0.000 C 
BRANCH  28  29
ATOM     29  C   UNL     1     -13.212  10.195  26.195  0.00  0.00    +0.000 C 
BRANCH  29  30
ATOM     30  O   UNL     1     -12.261  10.605  27.155  0.00  0.00    +0.000 OA
BRANCH  30  31
ATOM     31  C   UNL     1     -11.820   9.548  28.017  0.00  0.00    +0.000 C 
BRANCH  31  32
ATOM     32  C   UNL     1     -11.466   8.315  27.189  0.00  0.00    +0.000 C 
BRANCH  32  33
ATOM     33  O   UNL     1     -10.260   7.715  27.619  0.00  0.00    +0.000 OA
BRANCH  33  34
ATOM     34  C   UNL     1      -9.559   8.491  28.565  0.00  0.00    +0.000 C 
BRANCH  34  35
ATOM     35  C   UNL     1      -8.291   7.765  29.065  0.00  0.00    +0.000 C 
BRANCH  35  36
ATOM     36  O   UNL     1      -7.281   8.716  29.269  0.00  0.00    +0.000 OA
BRANCH  36  37
ATOM     37  C   UNL     1      -7.291   9.651  28.204  0.00  0.00    +0.000 C 
BRANCH  37  39
ATOM     38  O   UNL     1      -7.721  12.000  28.410  0.00  0.00    +0.000 OA
ATOM     39  C   UNL     1      -6.756  10.977  28.658  0.00  0.00    +0.000 C 
ENDBRANCH  37  39
ENDBRANCH  36  37
ENDBRANCH  35  36
ENDBRANCH  34  35
ENDBRANCH  33  34
ENDBRANCH  32  33
ENDBRANCH  31  32
ENDBRANCH  30  31
ENDBRANCH  29  30
ENDBRANCH  28  29
ENDBRANCH  27  28
ENDBRANCH  26  27
ENDBRANCH  25  26
ENDBRANCH  24  25
ENDBRANCH   5  24
ENDBRANCH   2   4
ENDBRANCH   1   2
BRANCH   1  40
ATOM     40  O   UNL     1     -15.245   4.690  19.789  0.00  0.00    +0.000 OA
BRANCH  40  41
ATOM     41  C   UNL     1     -15.718   5.977  20.144  0.00  0.00    +0.000 C 
BRANCH  41  42
ATOM     42  C   UNL     1     -15.345   7.017  19.084  0.00  0.00    +0.000 C 
BRANCH  42  43
ATOM     43  O   UNL     1     -14.856   8.148  19.709  0.00  0.00    +0.000 OA
BRANCH  43  44
ATOM     44  C   UNL     1     -15.882   9.043  20.136  0.00  0.00    +0.000 C 
BRANCH  44  45
ATOM     45  C   UNL     1     -16.888   9.224  19.012  0.00  0.00    +0.000 C 
BRANCH  45  46
ATOM     46  O   UNL     1     -18.170   8.976  19.496  0.00  0.00    +0.000 OA
BRANCH  46  47
ATOM     47  C   UNL     1     -18.904   8.182  18.616  0.00  0.00    +0.000 C 
BRANCH  47  48
ATOM     48  C   UNL     1     -20.184   8.922  18.222  0.00  0.00    +0.000 C 
BRANCH  48  49
ATOM     49  O   UNL     1     -20.357  10.017  19.087  0.00  0.00    +0.000 OA
BRANCH  49  50
ATOM     50  C   UNL     1     -21.635  10.606  19.018  0.00  0.00    +0.000 C 
BRANCH  50  51
ATOM     51  C   UNL     1     -22.656   9.574  19.454  0.00  0.00    +0.000 C 
BRANCH  51  52
ATOM     52  O   UNL     1     -23.839   9.798  18.663  0.00  0.00    +0.000 OA
BRANCH  52  53
ATOM     53  C   UNL     1     -23.960   8.867  17.582  0.00  0.00    +0.000 C 
BRANCH  53  54
ATOM     54  C   UNL     1     -23.890   9.544  16.261  0.00  0.00    +0.000 C 
ATOM     55  O   UNL     1     -22.678   9.177  15.627  0.00  0.00    +0.000 OA
ENDBRANCH  53  54
ENDBRANCH  52  53
ENDBRANCH  51  52
ENDBRANCH  50  51
ENDBRANCH  49  50
ENDBRANCH  48  49
ENDBRANCH  47  48
ENDBRANCH  46  47
ENDBRANCH  45  46
ENDBRANCH  44  45
ENDBRANCH  43  44
ENDBRANCH  42  43
ENDBRANCH  41  42
ENDBRANCH  40  41
ENDBRANCH   1  40
BRANCH   1  56
ATOM     56  C   UNL     1     -13.704   3.643  18.227  0.00  0.00    +0.000 C 
BRANCH  56  57
ATOM     57  O   UNL     1     -12.378   3.687  17.903  0.00  0.00    +0.000 OA
BRANCH  57  58
ATOM     58  C   UNL     1     -12.243   4.175  16.536  0.00  0.00    +0.000 C 
BRANCH  58  59
ATOM     59  C   UNL     1     -10.971   3.633  15.917  0.00  0.00    +0.000 C 
BRANCH  59  60
ATOM     60  O   UNL     1     -10.908   4.040  14.573  0.00  0.00    +0.000 OA
BRANCH  60  61
ATOM     61  C   UNL     1      -9.976   3.280  13.843  0.00  0.00    +0.000 C 
BRANCH  61  62
ATOM     62  C   UNL     1      -9.236   4.239  12.900  0.00  0.00    +0.000 C 
BRANCH  62  63
ATOM     63  O   UNL     1      -9.403   3.772  11.549  0.00  0.00    +0.000 OA
BRANCH  63  64
ATOM     64  C   UNL     1      -9.047   4.783  10.599  0.00  0.00    +0.000 C 
BRANCH  64  65
ATOM     65  C   UNL     1      -9.435   4.351   9.197  0.00  0.00    +0.000 C 
BRANCH  65  66
ATOM     66  O   UNL     1      -9.108   5.420   8.301  0.00  0.00    +0.000 OA
BRANCH  66  67
ATOM     67  C   UNL     1     -10.213   5.754   7.428  0.00  0.00    +0.000 C 
BRANCH  67  68
ATOM     68  C   UNL     1     -11.034   4.448   7.217  0.00  0.00    +0.000 C 
BRANCH  68  69
ATOM     69  O   UNL     1     -12.181   4.727   6.422  0.00  0.00    +0.000 OA
BRANCH  69  70
ATOM     70  C   UNL     1     -13.363   4.082   6.908  0.00  0.00    +0.000 C 
BRANCH  70  71
ATOM     71  C   UNL     1     -14.579   4.693   6.288  0.00  0.00    +0.000 C 
BRANCH  71  72
ATOM     72  O   UNL     1     -15.072   5.704   7.125  0.00  0.00    +0.000 OA
BRANCH  72  74
ATOM     73  O   UNL     1     -16.171   5.079   8.943  0.00  0.00    +0.000 OA
ATOM     74  C   UNL     1     -16.198   5.302   7.793  0.00  0.00    +0.000 C 
BRANCH  74  75
ATOM     75  C   UNL     1     -17.445   5.123   6.989  0.00  0.00    +0.000 C 
BRANCH  75  76
ATOM     76  C   UNL     1     -17.643   3.635   6.569  0.00  0.00    +0.000 C 
BRANCH  76  77
ATOM     77  C   UNL     1     -19.051   3.267   6.957  0.00  0.00    +0.000 C 
BRANCH  77  78
ATOM     78  C   UNL     1     -19.031   2.039   7.820  0.00  0.00    +0.000 C 
BRANCH  78  79
ATOM     79  C   UNL     1     -17.620   1.712   8.208  0.00  0.00    +0.000 C 
BRANCH  79  80
ATOM     80  C   UNL     1     -17.652   0.806   9.427  0.00  0.00    +0.000 C 
BRANCH  80  81
ATOM     81  C   UNL     1     -16.236   0.582   9.866  0.00  0.00    +0.000 C 
BRANCH  81  82
ATOM     82  C   UNL     1     -15.299   1.508   9.143  0.00  0.00    +0.000 C 
BRANCH  82  83
ATOM     83  C   UNL     1     -14.564   2.364  10.125  0.00  0.00    +0.000 C 
BRANCH  83  84
ATOM     84  C   UNL     1     -14.692   1.711  11.496  0.00  0.00    +0.000 C 
BRANCH  84  85
ATOM     85  C   UNL     1     -14.816   2.781  12.528  0.00  0.00    +0.000 C 
BRANCH  85  86
ATOM     86  C   UNL     1     -13.925   2.401  13.717  0.00  0.00    +0.000 C 
BRANCH  86  87
ATOM     87  C   UNL     1     -13.077   1.200  13.338  0.00  0.00    +0.000 C 
BRANCH  87  88
ATOM     88  C   UNL     1     -12.516   0.627  14.624  0.00  0.00    +0.000 C 
BRANCH  88  89
ATOM     89  C   UNL     1     -13.521  -0.373  15.171  0.00  0.00    +0.000 C 
BRANCH  89  90
ATOM     90  C   UNL     1     -13.551  -0.307  16.668  0.00  0.00    +0.000 C 
ATOM     91  C   UNL     1     -12.232   0.231  17.194  0.00  0.00    +0.000 C 
ENDBRANCH  89  90
ENDBRANCH  88  89
ENDBRANCH  87  88
ENDBRANCH  86  87
ENDBRANCH  85  86
ENDBRANCH  84  85
ENDBRANCH  83  84
ENDBRANCH  82  83
ENDBRANCH  81  82
ENDBRANCH  80  81
ENDBRANCH  79  80
ENDBRANCH  78  79
ENDBRANCH  77  78
ENDBRANCH  76  77
ENDBRANCH  75  76
ENDBRANCH  74  75
ENDBRANCH  72  74
ENDBRANCH  71  72
ENDBRANCH  70  71
ENDBRANCH  69  70
ENDBRANCH  68  69
ENDBRANCH  67  68
ENDBRANCH  66  67
ENDBRANCH  65  66
ENDBRANCH  64  65
ENDBRANCH  63  64
ENDBRANCH  62  63
ENDBRANCH  61  62
ENDBRANCH  60  61
ENDBRANCH  59  60
ENDBRANCH  58  59
ENDBRANCH  57  58
ENDBRANCH  56  57
ENDBRANCH   1  56
TORSDOF 81
BEGIN_RES LEU A  10
REMARK  2 active torsions:
REMARK  status: ('A' for Active; 'I' for Inactive)
REMARK    1  A    between atoms: CA   and  CB  
REMARK    2  A    between atoms: CB   and  CG  
ROOT
ATOM      1  CA  LEU A  10     -10.775  -4.871   5.898  1.00 25.14     0.177 C 
ENDROOT
BRANCH   1   2
ATOM      2  CB  LEU A  10     -12.191  -4.387   6.226  1.00 17.87     0.038 C 
BRANCH   2   3
ATOM      3  CG  LEU A  10     -12.288  -2.898   6.565  1.00 24.95    -0.020 C 
ATOM      4  CD2 LEU A  10     -12.643  -2.750   8.006  1.00 26.38     0.009 C 
ATOM      5  CD1 LEU A  10     -13.316  -2.207   5.687  1.00 28.12     0.009 C 
ENDBRANCH   2   3
ENDBRANCH   1   2
END_RES LEU A  10
BEGIN_RES CYS A  12
REMARK  2 active torsions:
REMARK  status: ('A' for Active; 'I' for Inactive)
REMARK    3  A    between atoms: CA   and  CB  
REMARK    4  A    between atoms: CB   and  SG  
ROOT
ATOM      6  CA  CYS A  12      -8.555   0.470   8.750  1.00 23.16     0.185 C 
ENDROOT
BRANCH   6   7
ATOM      7  CB  CYS A  12      -9.828   0.763   9.555  1.00 20.43     0.105 C 
BRANCH   7   8
ATOM      8  SG  CYS A  12     -11.371   0.879   8.598  1.00 24.64    -0.180 SA
ATOM      9  H04 CYS A  12     -11.983   2.037   8.876  1.00 24.64     0.101 HD
ENDBRANCH   7   8
ENDBRANCH   6   7
END_RES CYS A  12
BEGIN_RES GLN A  14
REMARK  3 active torsions:
REMARK  status: ('A' for Active; 'I' for Inactive)
REMARK    5  A    between atoms: CA   and  CB  
REMARK    6  A    between atoms: CB   and  CG  
REMARK    7  A    between atoms: CG   and  CD  
REMARK       I    between atoms: CD   and  NE2 
ROOT
ATOM     10  CA  GLN A  14      -4.645   5.402  11.377  1.00 10.43     0.177 C 
ENDROOT
BRANCH  10  11
ATOM     11  CB  GLN A  14      -5.541   5.549  12.608  1.00 14.45     0.044 C 
BRANCH  11  12
ATOM     12  CG  GLN A  14      -6.551   6.669  12.506  1.00 13.74     0.105 C 
BRANCH  12  13
ATOM     13  CD  GLN A  14      -6.044   7.960  13.103  1.00 16.29     0.215 C 
ATOM     14  NE2 GLN A  14      -5.524   8.829  12.264  1.00  8.57    -0.370 N 
ATOM     15  H06 GLN A  14      -5.170   9.711  12.605  1.00  8.57     0.159 HD
ATOM     16  H07 GLN A  14      -5.479   8.615  11.278  1.00  8.57     0.159 HD
ATOM     17  OE1 GLN A  14      -6.122   8.173  14.302  1.00 23.55    -0.274 OA
ENDBRANCH  12  13
ENDBRANCH  11  12
ENDBRANCH  10  11
END_RES GLN A  14
BEGIN_RES SER A  16
REMARK  2 active torsions:
REMARK  status: ('A' for Active; 'I' for Inactive)
REMARK    8  A    between atoms: CA   and  CB  
REMARK    9  A    between atoms: CB   and  OG  
ROOT
ATOM     18  CA  SER A  16      -1.305  10.019  14.282  1.00  2.34     0.200 C 
ENDROOT
BRANCH  18  19
ATOM     19  CB  SER A  16      -2.242   9.935  15.479  1.00  3.12     0.199 C 
BRANCH  19  20
ATOM     20  OG  SER A  16      -3.466   9.328  15.105  1.00  1.00    -0.398 OA
ATOM     21  H04 SER A  16      -4.186   9.727  15.598  1.00  1.00     0.209 HD
ENDBRANCH  19  20
ENDBRANCH  18  19
END_RES SER A  16
BEGIN_RES LEU A  32
REMARK  2 active torsions:
REMARK  status: ('A' for Active; 'I' for Inactive)
REMARK   10  A    between atoms: CA   and  CB  
REMARK   11  A    between atoms: CB   and  CG  
ROOT
ATOM     22  CA  LEU A  32     -10.272  -4.106   1.587  1.00 16.16     0.177 C 
ENDROOT
BRANCH  22  23
ATOM     23  CB  LEU A  32     -11.613  -3.858   0.880  1.00 12.35     0.038 C 
BRANCH  23  24
ATOM     24  CG  LEU A  32     -12.761  -3.640   1.886  1.00  9.77    -0.020 C 
ATOM     25  CD1 LEU A  32     -12.937  -4.862   2.756  1.00  4.35     0.009 C 
ATOM     26  CD2 LEU A  32     -12.496  -2.435   2.751  1.00 10.60     0.009 C 
ENDBRANCH  23  24
ENDBRANCH  22  23
END_RES LEU A  32
BEGIN_RES HIS A  38
REMARK  2 active torsions:
REMARK  status: ('A' for Active; 'I' for Inactive)
REMARK   12  A    between atoms: CA   and  CB  
REMARK   13  A    between atoms: CB   and  CG  
ROOT
ATOM     27  CA  HIS A  38     -10.959   4.941   1.621  1.00 16.94     0.182 C 
ENDROOT
BRANCH  27  28
ATOM     28  CB  HIS A  38     -11.810   4.840   2.881  1.00 15.47     0.095 C 
BRANCH  28  29
ATOM     29  CG  HIS A  38     -13.278   4.958   2.629  1.00 18.62     0.053 A 
ATOM     30  CD2 HIS A  38     -14.205   4.020   2.319  1.00 15.06     0.116 A 
ATOM     31  NE2 HIS A  38     -15.413   4.664   2.225  1.00 18.12    -0.359 N 
ATOM     32  CE1 HIS A  38     -15.236   5.949   2.467  1.00 14.78     0.207 A 
ATOM     33  H06 HIS A  38     -16.295   4.225   2.006  1.00 18.12     0.166 HD
ATOM     34  ND1 HIS A  38     -13.957   6.154   2.713  1.00 16.58    -0.247 NA
ENDBRANCH  28  29
ENDBRANCH  27  28
END_RES HIS A  38
BEGIN_RES TRP A  63
REMARK  2 active torsions:
REMARK  status: ('A' for Active; 'I' for Inactive)
REMARK   14  A    between atoms: CA   and  CB  
REMARK   15  A    between atoms: CB   and  CG  
ROOT
ATOM     35  CA  TRP A  63     -22.437   6.257   6.543  1.00 27.04     0.181 C 
ENDROOT
BRANCH  35  36
ATOM     36  CB  TRP A  63     -22.360   6.642   5.068  1.00 31.37     0.075 C 
BRANCH  36  37
ATOM     37  CG  TRP A  63     -20.962   6.629   4.486  1.00 34.37    -0.028 A 
ATOM     38  CD2 TRP A  63     -20.278   7.715   3.846  1.00 33.79    -0.002 A 
ATOM     39  CE3 TRP A  63     -20.633   9.023   3.509  1.00 32.99     0.014 A 
ATOM     40  CE2 TRP A  63     -18.978   7.262   3.532  1.00 35.84     0.042 A 
ATOM     41  CZ3 TRP A  63     -19.695   9.827   2.877  1.00 32.93     0.001 A 
ATOM     42  CH2 TRP A  63     -18.410   9.347   2.577  1.00 39.24     0.002 A 
ATOM     43  CZ2 TRP A  63     -18.034   8.070   2.897  1.00 37.99     0.030 A 
ATOM     44  NE1 TRP A  63     -18.883   5.966   3.960  1.00 37.98    -0.365 N 
ATOM     45  H06 TRP A  63     -18.068   5.377   3.872  1.00 37.98     0.165 HD
ATOM     46  CD1 TRP A  63     -20.078   5.596   4.528  1.00 38.16     0.096 A 
ENDBRANCH  36  37
ENDBRANCH  35  36
END_RES TRP A  63
BEGIN_RES LEU A  66
REMARK  2 active torsions:
REMARK  status: ('A' for Active; 'I' for Inactive)
REMARK   16  A    between atoms: CA   and  CB  
REMARK   17  A    between atoms: CB   and  CG  
ROOT
ATOM     47  CA  LEU A  66     -20.004   6.489  11.120  1.00 10.90     0.177 C 
ENDROOT
BRANCH  47  48
ATOM     48  CB  LEU A  66     -19.626   5.453  10.069  1.00 13.57     0.038 C 
BRANCH  48  49
ATOM     49  CG  LEU A  66     -19.181   4.079  10.569  1.00  8.73    -0.020 C 
ATOM     50  CD1 LEU A  66     -18.220   4.219  11.721  1.00 14.23     0.009 C 
ATOM     51  CD2 LEU A  66     -20.402   3.311  11.006  1.00  1.92     0.009 C 
ENDBRANCH  48  49
ENDBRANCH  47  48
END_RES LEU A  66
BEGIN_RES PHE A  70
REMARK  2 active torsions:
REMARK  status: ('A' for Active; 'I' for Inactive)
REMARK   18  A    between atoms: CA   and  CB  
REMARK   19  A    between atoms: CB   and  CG  
ROOT
ATOM     52  CA  PHE A  70     -14.974   9.434  13.165  1.00  8.78     0.180 C 
ENDROOT
BRANCH  52  53
ATOM     53  CB  PHE A  70     -14.707   9.132  11.681  1.00  6.33     0.073 C 
BRANCH  53  54
ATOM     54  CG  PHE A  70     -13.940   7.857  11.458  1.00  3.42    -0.056 A 
ATOM     55  CD1 PHE A  70     -13.669   7.399  10.178  1.00 13.88     0.007 A 
ATOM     56  CE1 PHE A  70     -12.994   6.182   9.977  1.00 12.71     0.001 A 
ATOM     57  CZ  PHE A  70     -12.585   5.418  11.070  1.00  4.21     0.000 A 
ATOM     58  CE2 PHE A  70     -12.847   5.865  12.352  1.00  2.83     0.001 A 
ATOM     59  CD2 PHE A  70     -13.523   7.083  12.542  1.00  1.00     0.007 A 
ENDBRANCH  53  54
ENDBRANCH  52  53
END_RES PHE A  70
BEGIN_RES TYR A  73
REMARK  3 active torsions:
REMARK  status: ('A' for Active; 'I' for Inactive)
REMARK   20  A    between atoms: CA   and  CB  
REMARK   21  A    between atoms: CB   and  CG  
REMARK   22  A    between atoms: CZ   and  OH  
ROOT
ATOM     60  CA  TYR A  73     -13.212  10.166  17.260  1.00 12.17     0.180 C 
ENDROOT
BRANCH  60  61
ATOM     61  CB  TYR A  73     -13.301   8.846  16.517  1.00 12.84     0.073 C 
BRANCH  61  62
ATOM     62  CG  TYR A  73     -11.973   8.213  16.290  1.00 15.89    -0.056 A 
ATOM     63  CD1 TYR A  73     -11.422   8.148  15.030  1.00 16.00     0.010 A 
ATOM     64  CE1 TYR A  73     -10.192   7.528  14.810  1.00 13.55     0.037 A 
ATOM     65  CZ  TYR A  73      -9.516   6.970  15.877  1.00 18.13     0.065 A 
ATOM     66  CE2 TYR A  73     -10.043   7.023  17.146  1.00 15.89     0.037 A 
ATOM     67  CD2 TYR A  73     -11.269   7.645  17.346  1.00 21.86     0.010 A 
BRANCH  65  68
ATOM     68  OH  TYR A  73      -8.300   6.360  15.684  1.00 12.12    -0.361 OA
ATOM     69  H08 TYR A  73      -7.723   6.556  16.426  1.00 12.12     0.217 HD
ENDBRANCH  65  68
ENDBRANCH  61  62
ENDBRANCH  60  61
END_RES TYR A  73
BEGIN_RES PHE A  77
REMARK  2 active torsions:
REMARK  status: ('A' for Active; 'I' for Inactive)
REMARK   23  A    between atoms: CA   and  CB  
REMARK   24  A    between atoms: CB   and  CG  
ROOT
ATOM     70  CA  PHE A  77      -8.400  10.581  20.110  1.00 17.17     0.180 C 
ENDROOT
BRANCH  70  71
ATOM     71  CB  PHE A  77      -8.228   9.750  18.851  1.00 10.44     0.073 C 
BRANCH  71  72
ATOM     72  CG  PHE A  77      -7.085   8.786  18.916  1.00  6.07    -0.056 A 
ATOM     73  CD2 PHE A  77      -6.172   8.713  17.889  1.00  9.61     0.007 A 
ATOM     74  CE2 PHE A  77      -5.106   7.822  17.942  1.00  1.00     0.001 A 
ATOM     75  CZ  PHE A  77      -4.951   6.995  19.041  1.00  1.92     0.000 A 
ATOM     76  CE1 PHE A  77      -5.854   7.057  20.078  1.00  9.25     0.001 A 
ATOM     77  CD1 PHE A  77      -6.920   7.954  20.011  1.00  9.63     0.007 A 
ENDBRANCH  71  72
ENDBRANCH  70  71
END_RES PHE A  77
BEGIN_RES LEU A  96
REMARK  2 active torsions:
REMARK  status: ('A' for Active; 'I' for Inactive)
REMARK   25  A    between atoms: CA   and  CB  
REMARK   26  A    between atoms: CB   and  CG  
ROOT
ATOM     78  CA  LEU A  96       0.717   6.481  17.359  1.00 16.08     0.177 C 
ENDROOT
BRANCH  78  79
ATOM     79  CB  LEU A  96      -0.370   7.101  18.230  1.00 18.83     0.038 C 
BRANCH  79  80
ATOM     80  CG  LEU A  96      -0.832   6.221  19.391  1.00 19.03    -0.020 C 
ATOM     81  CD1 LEU A  96       0.381   5.602  20.047  1.00 28.17     0.009 C 
ATOM     82  CD2 LEU A  96      -1.562   7.050  20.423  1.00 22.01     0.009 C 
ENDBRANCH  79  80
ENDBRANCH  78  79
END_RES LEU A  96
BEGIN_RES VAL A  98
REMARK  1 active torsions:
REMARK  status: ('A' for Active; 'I' for Inactive)
REMARK   27  A    between atoms: CA   and  CB  
ROOT
ATOM     83  CA  VAL A  98      -3.928   2.082  14.897  1.00 19.83     0.180 C 
ENDROOT
BRANCH  83  84
ATOM     84  CB  VAL A  98      -5.203   2.807  15.281  1.00 17.87     0.009 C 
ATOM     85  CG2 VAL A  98      -4.897   4.240  15.631  1.00 29.90     0.012 C 
ATOM     86  CG1 VAL A  98      -5.858   2.097  16.447  1.00 14.79     0.012 C 
ENDBRANCH  83  84
END_RES VAL A  98
BEGIN_RES ASN A 112
REMARK  2 active torsions:
REMARK  status: ('A' for Active; 'I' for Inactive)
REMARK   28  A    between atoms: CA   and  CB  
REMARK   29  A    between atoms: CB   and  CG  
REMARK       I    between atoms: CG   and  ND2 
ROOT
ATOM     87  CA  ASN A 112     -11.790  -8.793  14.069  1.00 37.70     0.185 C 
ENDROOT
BRANCH  87  88
ATOM     88  CB  ASN A 112     -12.992  -7.945  14.465  1.00 26.24     0.137 C 
BRANCH  88  89
ATOM     89  CG  ASN A 112     -13.824  -8.571  15.562  1.00 21.77     0.217 C 
ATOM     90  ND2 ASN A 112     -14.978  -9.119  15.184  1.00  9.31    -0.370 N 
ATOM     91  H04 ASN A 112     -15.580  -9.552  15.870  1.00  9.31     0.159 HD
ATOM     92  H05 ASN A 112     -15.251  -9.102  14.211  1.00  9.31     0.159 HD
ATOM     93  OD1 ASN A 112     -13.439  -8.561  16.737  1.00 21.61    -0.274 OA
ENDBRANCH  88  89
ENDBRANCH  87  88
END_RES ASN A 112
BEGIN_RES PHE A 114
REMARK  2 active torsions:
REMARK  status: ('A' for Active; 'I' for Inactive)
REMARK   30  A    between atoms: CA   and  CB  
REMARK   31  A    between atoms: CB   and  CG  
ROOT
ATOM     94  CA  PHE A 114      -7.754  -3.619  17.012  1.00 26.06     0.180 C 
ENDROOT
BRANCH  94  95
ATOM     95  CB  PHE A 114      -8.890  -3.080  17.867  1.00 19.95     0.073 C 
BRANCH  95  96
ATOM     96  CG  PHE A 114      -8.783  -1.615  18.139  1.00 17.65    -0.056 A 
ATOM     97  CD1 PHE A 114      -8.686  -0.701  17.093  1.00 13.01     0.007 A 
ATOM     98  CE1 PHE A 114      -8.556   0.659  17.346  1.00  6.74     0.001 A 
ATOM     99  CZ  PHE A 114      -8.525   1.125  18.657  1.00  6.27     0.000 A 
ATOM    100  CE2 PHE A 114      -8.622   0.225  19.706  1.00 17.36     0.001 A 
ATOM    101  CD2 PHE A 114      -8.751  -1.144  19.444  1.00 18.39     0.007 A 
ENDBRANCH  95  96
ENDBRANCH  94  95
END_RES PHE A 114
BEGIN_RES VAL A 116
REMARK  1 active torsions:
REMARK  status: ('A' for Active; 'I' for Inactive)
REMARK   32  A    between atoms: CA   and  CB  
ROOT
ATOM    102  CA  VAL A 116      -2.467   0.283  18.565  1.00 13.48     0.180 C 
ENDROOT
BRANCH 102 103
ATOM    103  CB  VAL A 116      -3.101   1.238  19.599  1.00 20.86     0.009 C 
ATOM    104  CG1 VAL A 116      -2.894   2.688  19.151  1.00 25.01     0.012 C 
ATOM    105  CG2 VAL A 116      -4.565   0.921  19.799  1.00 25.34     0.012 C 
ENDBRANCH 102 103
END_RES VAL A 116
BEGIN_RES ILE A 123
REMARK  2 active torsions:
REMARK  status: ('A' for Active; 'I' for Inactive)
REMARK   33  A    between atoms: CA   and  CB  
REMARK   34  A    between atoms: CB   and  CG1 
ROOT
ATOM    106  CA  ILE A 123       1.557  -1.626  23.222  1.00 15.07     0.180 C 
ENDROOT
BRANCH 106 107
ATOM    107  CB  ILE A 123       1.697  -0.112  23.461  1.00 14.41     0.013 C 
ATOM    108  CG2 ILE A 123       3.111   0.212  23.910  1.00 18.35     0.012 C 
BRANCH 107 109
ATOM    109  CG1 ILE A 123       1.358   0.659  22.188  1.00 15.23     0.002 C 
ATOM    110  CD1 ILE A 123       0.237   1.655  22.364  1.00 14.67     0.005 C 
ENDBRANCH 107 109
ENDBRANCH 106 107
END_RES ILE A 123
BEGIN_RES LEU A 124
REMARK  2 active torsions:
REMARK  status: ('A' for Active; 'I' for Inactive)
REMARK   35  A    between atoms: CA   and  CB  
REMARK   36  A    between atoms: CB   and  CG  
ROOT
ATOM    111  CA  LEU A 124      -2.057  -2.686  23.524  1.00 11.86     0.177 C 
ENDROOT
BRANCH 111 112
ATOM    112  CB  LEU A 124      -2.698  -1.652  24.429  1.00 14.60     0.038 C 
BRANCH 112 113
ATOM    113  CG  LEU A 124      -2.600  -0.248  23.852  1.00 16.19    -0.020 C 
ATOM    114  CD1 LEU A 124      -4.001   0.210  23.405  1.00 22.07     0.009 C 
ATOM    115  CD2 LEU A 124      -2.008   0.679  24.884  1.00  9.12     0.009 C 
ENDBRANCH 112 113
ENDBRANCH 111 112
END_RES LEU A 124
BEGIN_RES PHE A 126
REMARK  2 active torsions:
REMARK  status: ('A' for Active; 'I' for Inactive)
REMARK   37  A    between atoms: CA   and  CB  
REMARK   38  A    between atoms: CB   and  CG  
ROOT
ATOM    116  CA  PHE A 126      -8.784  -4.792  22.233  1.00 23.15     0.180 C 
ENDROOT
BRANCH 116 117
ATOM    117  CB  PHE A 126      -9.823  -4.011  21.461  1.00 20.65     0.073 C 
BRANCH 117 118
ATOM    118  CG  PHE A 126     -10.944  -3.534  22.299  1.00 23.65    -0.056 A 
ATOM    119  CD2 PHE A 126     -10.759  -2.505  23.206  1.00 36.63     0.007 A 
ATOM    120  CE2 PHE A 126     -11.823  -2.053  23.998  1.00 36.27     0.001 A 
ATOM    121  CZ  PHE A 126     -13.074  -2.638  23.876  1.00 18.06     0.000 A 
ATOM    122  CE1 PHE A 126     -13.263  -3.663  22.970  1.00  5.50     0.001 A 
ATOM    123  CD1 PHE A 126     -12.199  -4.105  22.184  1.00 15.29     0.007 A 
ENDBRANCH 117 118
ENDBRANCH 116 117
END_RES PHE A 126
BEGIN_RES TRP A 131
REMARK  2 active torsions:
REMARK  status: ('A' for Active; 'I' for Inactive)
REMARK   39  A    between atoms: CA   and  CB  
REMARK   40  A    between atoms: CB   and  CG  
ROOT
ATOM    124  CA  TRP A 131      -8.096  -3.335  26.542  1.00 14.52     0.181 C 
ENDROOT
BRANCH 124 125
ATOM    125  CB  TRP A 131      -7.651  -1.877  26.607  1.00 13.06     0.075 C 
BRANCH 125 126
ATOM    126  CG  TRP A 131      -8.000  -1.065  25.379  1.00 16.97    -0.028 A 
ATOM    127  CD2 TRP A 131      -9.058  -0.110  25.262  1.00 11.34    -0.002 A 
ATOM    128  CE2 TRP A 131      -9.016   0.409  23.953  1.00  5.87     0.042 A 
ATOM    129  CE3 TRP A 131     -10.039   0.358  26.144  1.00  3.80     0.014 A 
ATOM    130  CZ2 TRP A 131      -9.918   1.375  23.504  1.00  1.35     0.030 A 
ATOM    131  NE1 TRP A 131      -7.982  -0.204  23.301  1.00 13.90    -0.365 N 
ATOM    132  CH2 TRP A 131     -10.869   1.817  24.390  1.00  1.00     0.002 A 
ATOM    133  CZ3 TRP A 131     -10.936   1.314  25.703  1.00  1.00     0.001 A 
ATOM    134  CD1 TRP A 131      -7.375  -1.088  24.162  1.00 17.22     0.096 A 
ATOM    135  H07 TRP A 131      -7.708  -0.035  22.343  1.00 13.90     0.165 HD
ENDBRANCH 125 126
ENDBRANCH 124 125
END_RES TRP A 131
BEGIN_RES LEU A 148
REMARK  2 active torsions:
REMARK  status: ('A' for Active; 'I' for Inactive)
REMARK   41  A    between atoms: CA   and  CB  
REMARK   42  A    between atoms: CB   and  CG  
ROOT
ATOM    136  CA  LEU A 148      -9.018   3.259  29.295  1.00 16.99     0.177 C 
ENDROOT
BRANCH 136 137
ATOM    137  CB  LEU A 148      -8.166   2.574  28.236  1.00  6.39     0.038 C 
BRANCH 137 138
ATOM    138  CG  LEU A 148      -7.263   3.375  27.320  1.00  1.00    -0.020 C 
ATOM    139  CD2 LEU A 148      -7.913   3.563  25.981  1.00  1.00     0.009 C 
ATOM    140  CD1 LEU A 148      -5.949   2.628  27.176  1.00  2.71     0.009 C 
ENDBRANCH 137 138
ENDBRANCH 136 137
END_RES LEU A 148
BEGIN_RES THR A 154
REMARK  2 active torsions:
REMARK  status: ('A' for Active; 'I' for Inactive)
REMARK   43  A    between atoms: CA   and  CB  
REMARK   44  A    between atoms: CB   and  OG1 
ROOT
ATOM    141  CA  THR A 154     -15.990   3.959  24.426  1.00 20.45     0.205 C 
ENDROOT
BRANCH 141 142
ATOM    142  CB  THR A 154     -14.777   4.829  24.694  1.00 16.79     0.146 C 
ATOM    143  CG2 THR A 154     -13.548   4.230  24.038  1.00 20.24     0.042 C 
BRANCH 142 144
ATOM    144  OG1 THR A 154     -15.008   6.131  24.141  1.00 18.84    -0.393 OA
ATOM    145  H06 THR A 154     -15.099   6.063  23.188  1.00 18.84     0.210 HD
ENDBRANCH 142 144
ENDBRANCH 141 142
END_RES THR A 154
BEGIN_RES VAL A 158
REMARK  1 active torsions:
REMARK  status: ('A' for Active; 'I' for Inactive)
REMARK   45  A    between atoms: CA   and  CB  
ROOT
ATOM    146  CA  VAL A 158     -15.487  -0.189  19.892  1.00 15.49     0.180 C 
ENDROOT
BRANCH 146 147
ATOM    147  CB  VAL A 158     -14.291  -0.273  20.822  1.00  6.52     0.009 C 
ATOM    148  CG1 VAL A 158     -13.299  -1.303  20.333  1.00  1.00     0.012 C 
ATOM    149  CG2 VAL A 158     -13.653   1.079  20.907  1.00  5.99     0.012 C 
ENDBRANCH 146 147
END_RES VAL A 158
BEGIN_RES LEU A 161
REMARK  2 active torsions:
REMARK  status: ('A' for Active; 'I' for Inactive)
REMARK   46  A    between atoms: CA   and  CB  
REMARK   47  A    between atoms: CB   and  CG  
ROOT
ATOM    150  CA  LEU A 161     -18.031  -1.858  15.935  1.00 13.31     0.177 C 
ENDROOT
BRANCH 150 151
ATOM    151  CB  LEU A 161     -17.046  -0.706  16.001  1.00 14.13     0.038 C 
BRANCH 151 152
ATOM    152  CG  LEU A 161     -17.504   0.609  15.384  1.00 19.39    -0.020 C 
ATOM    153  CD2 LEU A 161     -17.355   0.562  13.882  1.00 27.75     0.009 C 
ATOM    154  CD1 LEU A 161     -16.671   1.728  15.949  1.00 18.59     0.009 C 
ENDBRANCH 151 152
ENDBRANCH 150 151
END_RES LEU A 161
BEGIN_RES GLN A 168
REMARK  3 active torsions:
REMARK  status: ('A' for Active; 'I' for Inactive)
REMARK   48  A    between atoms: CA   and  CB  
REMARK   49  A    between atoms: CB   and  CG  
REMARK   50  A    between atoms: CG   and  CD  
REMARK       I    between atoms: CD   and  NE2 
ROOT
ATOM    155  CA  GLN A 168     -22.035  -6.020   8.155  1.00 30.94     0.177 C 
ENDROOT
BRANCH 155 156
ATOM    156  CB  GLN A 168     -23.054  -5.218   8.946  1.00 41.76     0.044 C 
BRANCH 156 157
ATOM    157  CG  GLN A 168     -24.441  -5.800   8.947  1.00 61.20     0.105 C 
BRANCH 157 158
ATOM    158  CD  GLN A 168     -24.965  -6.018   7.541  1.00 75.49     0.215 C 
ATOM    159  NE2 GLN A 168     -25.175  -7.285   7.179  1.00 85.00    -0.370 N 
ATOM    160  H06 GLN A 168     -25.521  -7.495   6.254  1.00 85.00     0.159 HD
ATOM    161  H07 GLN A 168     -24.987  -8.034   7.831  1.00 85.00     0.159 HD
ATOM    162  OE1 GLN A 168     -25.174  -5.061   6.782  1.00 73.64    -0.274 OA
ENDBRANCH 157 158
ENDBRANCH 156 157
ENDBRANCH 155 156
END_RES GLN A 168
ENDMDL
MODEL 9
REMARK VINA RESULT:      -6.5      1.750      2.828
REMARK  Name = human_CD1d_tween80_pred.rank_0
REMARK  81 active torsions:
REMARK  status: ('A' for Active; 'I' for Inactive)
REMARK    1  A    between atoms: C_1  and  C_3
REMARK    2  A    between atoms: C_3  and  O_4
REMARK    3  A    between atoms: O_4  and  C_5
REMARK    4  A    between atoms: C_5  and  C_7
REMARK    5  A    between atoms: O_6  and  C_7
REMARK    6  A    between atoms: O_6  and  C_9
REMARK    7  A    between atoms: O_8  and  C_11
REMARK    8  A    between atoms: O_8  and  C_13
REMARK    9  A    between atoms: C_9  and  C_11
REMARK   10  A    between atoms: O_10  and  C_15
REMARK   11  A    between atoms: O_10  and  C_17
REMARK   12  A    between atoms: O_12  and  C_19
REMARK   13  A    between atoms: O_12  and  C_21
REMARK   14  A    between atoms: C_13  and  C_15
REMARK   15  A    between atoms: O_14  and  C_23
REMARK   16  A    between atoms: O_14  and  C_25
REMARK   17  A    between atoms: O_16  and  C_27
REMARK   18  A    between atoms: O_16  and  C_29
REMARK   19  A    between atoms: C_17  and  C_19
REMARK   20  A    between atoms: O_18  and  C_31
REMARK   21  A    between atoms: O_18  and  C_33
REMARK   22  A    between atoms: O_20  and  C_35
REMARK   23  A    between atoms: O_20  and  C_37
REMARK   24  A    between atoms: C_21  and  C_23
REMARK   25  A    between atoms: C_21  and  C_67
REMARK   26  A    between atoms: O_22  and  C_39
REMARK   27  A    between atoms: O_22  and  C_41
REMARK   28  A    between atoms: O_24  and  C_43
REMARK   29  A    between atoms: O_24  and  C_45
REMARK   30  A    between atoms: C_25  and  C_27
REMARK   31  A    between atoms: O_28  and  C_69
REMARK   32  A    between atoms: O_28  and  C_70
REMARK   33  A    between atoms: C_29  and  C_31
REMARK   34  A    between atoms: O_30  and  C_71
REMARK   35  A    between atoms: O_30  and  C_72
REMARK   36  A    between atoms: O_32  and  C_73
REMARK   37  A    between atoms: O_32  and  C_74
REMARK   38  A    between atoms: C_33  and  C_35
REMARK   39  A    between atoms: O_34  and  C_75
REMARK   40  A    between atoms: O_34  and  C_76
REMARK   41  A    between atoms: O_36  and  C_77
REMARK   42  A    between atoms: O_36  and  C_78
REMARK   43  A    between atoms: C_37  and  C_39
REMARK   44  A    between atoms: O_40  and  C_80
REMARK   45  A    between atoms: O_40  and  C_81
REMARK   46  A    between atoms: C_41  and  C_43
REMARK   47  A    between atoms: O_42  and  C_82
REMARK   48  A    between atoms: O_42  and  C_83
REMARK   49  A    between atoms: O_44  and  C_84
REMARK   50  A    between atoms: O_44  and  C_85
REMARK   51  A    between atoms: C_45  and  C_47
REMARK   52  A    between atoms: O_46  and  C_86
REMARK   53  A    between atoms: O_46  and  C_87
REMARK   54  A    between atoms: C_47  and  C_49
REMARK   55  A    between atoms: O_48  and  C_88
REMARK   56  A    between atoms: O_48  and  C_89
REMARK   57  A    between atoms: C_49  and  C_51
REMARK   58  A    between atoms: C_51  and  C_53
REMARK   59  A    between atoms: C_53  and  C_54
REMARK   60  A    between atoms: C_54  and  C_55
REMARK   61  A    between atoms: C_55  and  C_56
REMARK   62  A    between atoms: C_56  and  C_57
REMARK   63  A    between atoms: C_57  and  C_58
REMARK   64  A    between atoms: C_58  and  C_59
REMARK   65  A    between atoms: C_59  and  C_60
REMARK   66  A    between atoms: C_60  and  C_61
REMARK   67  A    between atoms: C_61  and  C_62
REMARK   68  A    between atoms: C_62  and  C_63
REMARK   69  A    between atoms: C_63  and  C_64
REMARK   70  A    between atoms: C_64  and  C_65
REMARK   71  A    between atoms: C_67  and  C_68
REMARK   72  A    between atoms: C_70  and  C_71
REMARK   73  A    between atoms: C_72  and  C_73
REMARK   74  A    between atoms: C_74  and  C_75
REMARK   75  A    between atoms: C_76  and  C_77
REMARK   76  A    between atoms: C_78  and  C_79
REMARK   77  A    between atoms: C_81  and  C_82
REMARK   78  A    between atoms: C_83  and  C_84
REMARK   79  A    between atoms: C_85  and  C_86
REMARK   80  A    between atoms: C_87  and  C_88
REMARK   81  A    between atoms: C_89  and  C_90
REMARK                            x       y       z     vdW  Elec       q    Type
REMARK                         _______ _______ _______ _____ _____    ______ ____
ROOT
ATOM      1  C   UNL     1     -12.758   4.451  18.850  0.00  0.00    +0.000 C 
ENDROOT
BRANCH   1   2
ATOM      2  C   UNL     1     -11.948   3.911  20.208  0.00  0.00    +0.000 C 
BRANCH   2   4
ATOM      3  O   UNL     1      -9.586   3.792  20.689  0.00  0.00    +0.000 OA
ATOM      4  C   UNL     1     -10.651   4.627  20.397  0.00  0.00    +0.000 C 
ATOM      5  C   UNL     1     -10.603   5.468  21.702  0.00  0.00    +0.000 C 
ATOM      6  C   UNL     1      -9.063   5.633  21.856  0.00  0.00    +0.000 C 
ATOM      7  C   UNL     1      -8.502   4.410  21.264  0.00  0.00    +0.000 C 
BRANCH   6   8
ATOM      8  O   UNL     1      -8.768   5.612  23.244  0.00  0.00    +0.000 OA
BRANCH   8   9
ATOM      9  C   UNL     1      -8.469   6.905  23.821  0.00  0.00    +0.000 C 
BRANCH   9  10
ATOM     10  C   UNL     1      -7.058   6.894  24.346  0.00  0.00    +0.000 C 
BRANCH  10  11
ATOM     11  O   UNL     1      -6.179   7.378  23.347  0.00  0.00    +0.000 OA
BRANCH  11  12
ATOM     12  C   UNL     1      -4.980   6.628  23.306  0.00  0.00    +0.000 C 
BRANCH  12  13
ATOM     13  C   UNL     1      -5.209   5.183  22.934  0.00  0.00    +0.000 C 
BRANCH  13  14
ATOM     14  O   UNL     1      -4.079   4.768  22.160  0.00  0.00    +0.000 OA
BRANCH  14  15
ATOM     15  C   UNL     1      -3.403   3.693  22.725  0.00  0.00    +0.000 C 
BRANCH  15  16
ATOM     16  C   UNL     1      -2.087   4.188  23.381  0.00  0.00    +0.000 C 
BRANCH  16  17
ATOM     17  O   UNL     1      -2.323   4.276  24.738  0.00  0.00    +0.000 OA
BRANCH  17  18
ATOM     18  C   UNL     1      -1.641   5.383  25.355  0.00  0.00    +0.000 C 
BRANCH  18  19
ATOM     19  C   UNL     1      -1.169   6.298  24.227  0.00  0.00    +0.000 C 
BRANCH  19  20
ATOM     20  O   UNL     1       0.189   6.504  24.301  0.00  0.00    +0.000 OA
BRANCH  20  21
ATOM     21  C   UNL     1       0.540   7.797  23.887  0.00  0.00    +0.000 C 
BRANCH  21  23
ATOM     22  O   UNL     1       1.207   9.959  24.629  0.00  0.00    +0.000 OA
ATOM     23  C   UNL     1       0.552   8.744  25.054  0.00  0.00    +0.000 C 
ENDBRANCH  21  23
ENDBRANCH  20  21
ENDBRANCH  19  20
ENDBRANCH  18  19
ENDBRANCH  17  18
ENDBRANCH  16  17
ENDBRANCH  15  16
ENDBRANCH  14  15
ENDBRANCH  13  14
ENDBRANCH  12  13
ENDBRANCH  11  12
ENDBRANCH  10  11
ENDBRANCH   9  10
ENDBRANCH   8   9
ENDBRANCH   6   8
BRANCH   5  24
ATOM     24  O   UNL     1     -11.228   6.716  21.506  0.00  0.00    +0.000 OA
BRANCH  24  25
ATOM     25  C   UNL     1     -11.962   7.163  22.632  0.00  0.00    +0.000 C 
BRANCH  25  26
ATOM     26  C   UNL     1     -12.697   8.458  22.358  0.00  0.00    +0.000 C 
BRANCH  26  27
ATOM     27  O   UNL     1     -14.014   8.333  22.853  0.00  0.00    +0.000 OA
BRANCH  27  28
ATOM     28  C   UNL     1     -14.742   9.549  22.808  0.00  0.00    +0.000 C 
BRANCH  28  29
ATOM     29  C   UNL     1     -15.987   9.511  23.669  0.00  0.00    +0.000 C 
BRANCH  29  30
ATOM     30  O   UNL     1     -15.691   8.946  24.929  0.00  0.00    +0.000 OA
BRANCH  30  31
ATOM     31  C   UNL     1     -14.905   9.797  25.771  0.00  0.00    +0.000 C 
BRANCH  31  32
ATOM     32  C   UNL     1     -15.789  10.431  26.841  0.00  0.00    +0.000 C 
BRANCH  32  33
ATOM     33  O   UNL     1     -16.598  11.467  26.317  0.00  0.00    +0.000 OA
BRANCH  33  34
ATOM     34  C   UNL     1     -15.896  12.672  26.118  0.00  0.00    +0.000 C 
BRANCH  34  35
ATOM     35  C   UNL     1     -16.107  13.221  24.690  0.00  0.00    +0.000 C 
BRANCH  35  36
ATOM     36  O   UNL     1     -14.904  13.097  23.980  0.00  0.00    +0.000 OA
BRANCH  36  37
ATOM     37  C   UNL     1     -13.813  13.315  24.857  0.00  0.00    +0.000 C 
BRANCH  37  39
ATOM     38  O   UNL     1     -12.191  14.555  23.600  0.00  0.00    +0.000 OA
ATOM     39  C   UNL     1     -13.194  14.660  24.611  0.00  0.00    +0.000 C 
ENDBRANCH  37  39
ENDBRANCH  36  37
ENDBRANCH  35  36
ENDBRANCH  34  35
ENDBRANCH  33  34
ENDBRANCH  32  33
ENDBRANCH  31  32
ENDBRANCH  30  31
ENDBRANCH  29  30
ENDBRANCH  28  29
ENDBRANCH  27  28
ENDBRANCH  26  27
ENDBRANCH  25  26
ENDBRANCH  24  25
ENDBRANCH   5  24
ENDBRANCH   2   4
ENDBRANCH   1   2
BRANCH   1  40
ATOM     40  O   UNL     1     -14.155   4.496  19.170  0.00  0.00    +0.000 OA
BRANCH  40  41
ATOM     41  C   UNL     1     -14.422   5.494  20.139  0.00  0.00    +0.000 C 
BRANCH  41  42
ATOM     42  C   UNL     1     -14.349   6.895  19.526  0.00  0.00    +0.000 C 
BRANCH  42  43
ATOM     43  O   UNL     1     -15.505   7.138  18.809  0.00  0.00    +0.000 OA
BRANCH  43  44
ATOM     44  C   UNL     1     -16.214   8.292  19.260  0.00  0.00    +0.000 C 
BRANCH  44  45
ATOM     45  C   UNL     1     -17.706   8.052  19.115  0.00  0.00    +0.000 C 
BRANCH  45  46
ATOM     46  O   UNL     1     -18.318   9.213  18.650  0.00  0.00    +0.000 OA
BRANCH  46  47
ATOM     47  C   UNL     1     -19.633   8.975  18.254  0.00  0.00    +0.000 C 
BRANCH  47  48
ATOM     48  C   UNL     1     -20.552   9.993  18.931  0.00  0.00    +0.000 C 
BRANCH  48  49
ATOM     49  O   UNL     1     -20.041  10.283  20.209  0.00  0.00    +0.000 OA
BRANCH  49  50
ATOM     50  C   UNL     1     -20.779  11.253  20.915  0.00  0.00    +0.000 C 
BRANCH  50  51
ATOM     51  C   UNL     1     -20.700  10.924  22.394  0.00  0.00    +0.000 C 
BRANCH  51  52
ATOM     52  O   UNL     1     -19.791  11.873  22.983  0.00  0.00    +0.000 OA
BRANCH  52  53
ATOM     53  C   UNL     1     -19.515  11.589  24.358  0.00  0.00    +0.000 C 
BRANCH  53  54
ATOM     54  C   UNL     1     -20.088  10.282  24.777  0.00  0.00    +0.000 C 
ATOM     55  O   UNL     1     -19.108   9.572  25.513  0.00  0.00    +0.000 OA
ENDBRANCH  53  54
ENDBRANCH  52  53
ENDBRANCH  51  52
ENDBRANCH  50  51
ENDBRANCH  49  50
ENDBRANCH  48  49
ENDBRANCH  47  48
ENDBRANCH  46  47
ENDBRANCH  45  46
ENDBRANCH  44  45
ENDBRANCH  43  44
ENDBRANCH  42  43
ENDBRANCH  41  42
ENDBRANCH  40  41
ENDBRANCH   1  40
BRANCH   1  56
ATOM     56  C   UNL     1     -12.465   3.479  17.748  0.00  0.00    +0.000 C 
BRANCH  56  57
ATOM     57  O   UNL     1     -11.298   3.888  17.169  0.00  0.00    +0.000 OA
BRANCH  57  58
ATOM     58  C   UNL     1     -11.471   3.906  15.722  0.00  0.00    +0.000 C 
BRANCH  58  59
ATOM     59  C   UNL     1     -10.170   3.532  15.041  0.00  0.00    +0.000 C 
BRANCH  59  60
ATOM     60  O   UNL     1     -10.404   2.451  14.173  0.00  0.00    +0.000 OA
BRANCH  60  61
ATOM     61  C   UNL     1     -10.259   2.826  12.825  0.00  0.00    +0.000 C 
BRANCH  61  62
ATOM     62  C   UNL     1      -9.166   3.901  12.759  0.00  0.00    +0.000 C 
BRANCH  62  63
ATOM     63  O   UNL     1      -8.498   3.796  11.488  0.00  0.00    +0.000 OA
BRANCH  63  64
ATOM     64  C   UNL     1      -8.873   4.866  10.612  0.00  0.00    +0.000 C 
BRANCH  64  65
ATOM     65  C   UNL     1      -9.405   4.314   9.302  0.00  0.00    +0.000 C 
BRANCH  65  66
ATOM     66  O   UNL     1      -8.980   5.190   8.251  0.00  0.00    +0.000 OA
BRANCH  66  67
ATOM     67  C   UNL     1     -10.099   5.814   7.578  0.00  0.00    +0.000 C 
BRANCH  67  68
ATOM     68  C   UNL     1     -10.869   4.683   6.835  0.00  0.00    +0.000 C 
BRANCH  68  69
ATOM     69  O   UNL     1     -12.243   5.036   6.719  0.00  0.00    +0.000 OA
BRANCH  69  70
ATOM     70  C   UNL     1     -13.068   3.933   6.331  0.00  0.00    +0.000 C 
BRANCH  70  71
ATOM     71  C   UNL     1     -14.489   4.375   6.184  0.00  0.00    +0.000 C 
BRANCH  71  72
ATOM     72  O   UNL     1     -14.778   5.352   7.147  0.00  0.00    +0.000 OA
BRANCH  72  74
ATOM     73  O   UNL     1     -16.829   6.179   7.274  0.00  0.00    +0.000 OA
ATOM     74  C   UNL     1     -16.090   5.307   7.534  0.00  0.00    +0.000 C 
BRANCH  74  75
ATOM     75  C   UNL     1     -16.529   4.123   8.334  0.00  0.00    +0.000 C 
BRANCH  75  76
ATOM     76  C   UNL     1     -15.838   4.092   9.731  0.00  0.00    +0.000 C 
BRANCH  76  77
ATOM     77  C   UNL     1     -16.218   5.375  10.422  0.00  0.00    +0.000 C 
BRANCH  77  78
ATOM     78  C   UNL     1     -16.510   5.101  11.869  0.00  0.00    +0.000 C 
BRANCH  78  79
ATOM     79  C   UNL     1     -15.945   3.768  12.259  0.00  0.00    +0.000 C 
BRANCH  79  80
ATOM     80  C   UNL     1     -15.476   3.845  13.701  0.00  0.00    +0.000 C 
BRANCH  80  81
ATOM     81  C   UNL     1     -14.050   3.383  13.742  0.00  0.00    +0.000 C 
BRANCH  81  82
ATOM     82  C   UNL     1     -13.946   1.933  13.361  0.00  0.00    +0.000 C 
BRANCH  82  83
ATOM     83  C   UNL     1     -13.614   1.109  14.564  0.00  0.00    +0.000 C 
BRANCH  83  84
ATOM     84  C   UNL     1     -12.978  -0.187  14.076  0.00  0.00    +0.000 C 
BRANCH  84  85
ATOM     85  C   UNL     1     -13.944  -1.305  14.290  0.00  0.00    +0.000 C 
BRANCH  85  86
ATOM     86  C   UNL     1     -14.664  -1.572  12.962  0.00  0.00    +0.000 C 
BRANCH  86  87
ATOM     87  C   UNL     1     -13.645  -1.567  11.835  0.00  0.00    +0.000 C 
BRANCH  87  88
ATOM     88  C   UNL     1     -14.234  -0.745  10.706  0.00  0.00    +0.000 C 
BRANCH  88  89
ATOM     89  C   UNL     1     -15.691  -0.467  11.038  0.00  0.00    +0.000 C 
BRANCH  89  90
ATOM     90  C   UNL     1     -16.510  -0.449   9.783  0.00  0.00    +0.000 C 
ATOM     91  C   UNL     1     -17.466   0.730   9.800  0.00  0.00    +0.000 C 
ENDBRANCH  89  90
ENDBRANCH  88  89
ENDBRANCH  87  88
ENDBRANCH  86  87
ENDBRANCH  85  86
ENDBRANCH  84  85
ENDBRANCH  83  84
ENDBRANCH  82  83
ENDBRANCH  81  82
ENDBRANCH  80  81
ENDBRANCH  79  80
ENDBRANCH  78  79
ENDBRANCH  77  78
ENDBRANCH  76  77
ENDBRANCH  75  76
ENDBRANCH  74  75
ENDBRANCH  72  74
ENDBRANCH  71  72
ENDBRANCH  70  71
ENDBRANCH  69  70
ENDBRANCH  68  69
ENDBRANCH  67  68
ENDBRANCH  66  67
ENDBRANCH  65  66
ENDBRANCH  64  65
ENDBRANCH  63  64
ENDBRANCH  62  63
ENDBRANCH  61  62
ENDBRANCH  60  61
ENDBRANCH  59  60
ENDBRANCH  58  59
ENDBRANCH  57  58
ENDBRANCH  56  57
ENDBRANCH   1  56
TORSDOF 81
BEGIN_RES LEU A  10
REMARK  2 active torsions:
REMARK  status: ('A' for Active; 'I' for Inactive)
REMARK    1  A    between atoms: CA   and  CB  
REMARK    2  A    between atoms: CB   and  CG  
ROOT
ATOM      1  CA  LEU A  10     -10.775  -4.871   5.898  1.00 25.14     0.177 C 
ENDROOT
BRANCH   1   2
ATOM      2  CB  LEU A  10     -12.191  -4.387   6.226  1.00 17.87     0.038 C 
BRANCH   2   3
ATOM      3  CG  LEU A  10     -12.333  -2.867   6.327  1.00 24.95    -0.020 C 
ATOM      4  CD2 LEU A  10     -13.606  -2.543   7.033  1.00 26.38     0.009 C 
ATOM      5  CD1 LEU A  10     -12.306  -2.226   4.950  1.00 28.12     0.009 C 
ENDBRANCH   2   3
ENDBRANCH   1   2
END_RES LEU A  10
BEGIN_RES CYS A  12
REMARK  2 active torsions:
REMARK  status: ('A' for Active; 'I' for Inactive)
REMARK    3  A    between atoms: CA   and  CB  
REMARK    4  A    between atoms: CB   and  SG  
ROOT
ATOM      6  CA  CYS A  12      -8.555   0.470   8.750  1.00 23.16     0.185 C 
ENDROOT
BRANCH   6   7
ATOM      7  CB  CYS A  12      -9.828   0.763   9.555  1.00 20.43     0.105 C 
BRANCH   7   8
ATOM      8  SG  CYS A  12     -11.355   0.973   8.589  1.00 24.64    -0.180 SA
ATOM      9  H04 CYS A  12     -12.381   1.207   9.418  1.00 24.64     0.101 HD
ENDBRANCH   7   8
ENDBRANCH   6   7
END_RES CYS A  12
BEGIN_RES GLN A  14
REMARK  3 active torsions:
REMARK  status: ('A' for Active; 'I' for Inactive)
REMARK    5  A    between atoms: CA   and  CB  
REMARK    6  A    between atoms: CB   and  CG  
REMARK    7  A    between atoms: CG   and  CD  
REMARK       I    between atoms: CD   and  NE2 
ROOT
ATOM     10  CA  GLN A  14      -4.645   5.402  11.377  1.00 10.43     0.177 C 
ENDROOT
BRANCH  10  11
ATOM     11  CB  GLN A  14      -5.541   5.549  12.608  1.00 14.45     0.044 C 
BRANCH  11  12
ATOM     12  CG  GLN A  14      -6.092   6.942  12.808  1.00 13.74     0.105 C 
BRANCH  12  13
ATOM     13  CD  GLN A  14      -5.664   7.549  14.122  1.00 16.29     0.215 C 
ATOM     14  NE2 GLN A  14      -5.649   8.863  14.184  1.00  8.57    -0.370 N 
ATOM     15  H06 GLN A  14      -5.373   9.325  15.039  1.00  8.57     0.159 HD
ATOM     16  H07 GLN A  14      -5.915   9.410  13.377  1.00  8.57     0.159 HD
ATOM     17  OE1 GLN A  14      -5.353   6.845  15.070  1.00 23.55    -0.274 OA
ENDBRANCH  12  13
ENDBRANCH  11  12
ENDBRANCH  10  11
END_RES GLN A  14
BEGIN_RES SER A  16
REMARK  2 active torsions:
REMARK  status: ('A' for Active; 'I' for Inactive)
REMARK    8  A    between atoms: CA   and  CB  
REMARK    9  A    between atoms: CB   and  OG  
ROOT
ATOM     18  CA  SER A  16      -1.305  10.019  14.282  1.00  2.34     0.200 C 
ENDROOT
BRANCH  18  19
ATOM     19  CB  SER A  16      -2.242   9.935  15.479  1.00  3.12     0.199 C 
BRANCH  19  20
ATOM     20  OG  SER A  16      -2.689   8.603  15.662  1.00  1.00    -0.398 OA
ATOM     21  H04 SER A  16      -3.391   8.588  16.317  1.00  1.00     0.209 HD
ENDBRANCH  19  20
ENDBRANCH  18  19
END_RES SER A  16
BEGIN_RES LEU A  32
REMARK  2 active torsions:
REMARK  status: ('A' for Active; 'I' for Inactive)
REMARK   10  A    between atoms: CA   and  CB  
REMARK   11  A    between atoms: CB   and  CG  
ROOT
ATOM     22  CA  LEU A  32     -10.272  -4.106   1.587  1.00 16.16     0.177 C 
ENDROOT
BRANCH  22  23
ATOM     23  CB  LEU A  32     -11.613  -3.858   0.880  1.00 12.35     0.038 C 
BRANCH  23  24
ATOM     24  CG  LEU A  32     -12.641  -4.964   1.194  1.00  9.77    -0.020 C 
ATOM     25  CD1 LEU A  32     -13.173  -4.803   2.599  1.00  4.35     0.009 C 
ATOM     26  CD2 LEU A  32     -13.782  -4.931   0.212  1.00 10.60     0.009 C 
ENDBRANCH  23  24
ENDBRANCH  22  23
END_RES LEU A  32
BEGIN_RES HIS A  38
REMARK  2 active torsions:
REMARK  status: ('A' for Active; 'I' for Inactive)
REMARK   12  A    between atoms: CA   and  CB  
REMARK   13  A    between atoms: CB   and  CG  
ROOT
ATOM     27  CA  HIS A  38     -10.959   4.941   1.621  1.00 16.94     0.182 C 
ENDROOT
BRANCH  27  28
ATOM     28  CB  HIS A  38     -11.810   4.840   2.881  1.00 15.47     0.095 C 
BRANCH  28  29
ATOM     29  CG  HIS A  38     -13.262   5.110   2.652  1.00 18.62     0.053 A 
ATOM     30  CD2 HIS A  38     -14.259   4.301   2.220  1.00 15.06     0.116 A 
ATOM     31  NE2 HIS A  38     -15.410   5.046   2.219  1.00 18.12    -0.359 N 
ATOM     32  CE1 HIS A  38     -15.132   6.268   2.633  1.00 14.78     0.207 A 
ATOM     33  H06 HIS A  38     -16.323   4.714   1.944  1.00 18.12     0.166 HD
ATOM     34  ND1 HIS A  38     -13.843   6.334   2.900  1.00 16.58    -0.247 NA
ENDBRANCH  28  29
ENDBRANCH  27  28
END_RES HIS A  38
BEGIN_RES TRP A  63
REMARK  2 active torsions:
REMARK  status: ('A' for Active; 'I' for Inactive)
REMARK   14  A    between atoms: CA   and  CB  
REMARK   15  A    between atoms: CB   and  CG  
ROOT
ATOM     35  CA  TRP A  63     -22.437   6.257   6.543  1.00 27.04     0.181 C 
ENDROOT
BRANCH  35  36
ATOM     36  CB  TRP A  63     -22.360   6.642   5.068  1.00 31.37     0.075 C 
BRANCH  36  37
ATOM     37  CG  TRP A  63     -20.977   6.534   4.461  1.00 34.37    -0.028 A 
ATOM     38  CD2 TRP A  63     -20.003   5.508   4.699  1.00 33.79    -0.002 A 
ATOM     39  CE3 TRP A  63     -19.954   4.387   5.531  1.00 32.99     0.014 A 
ATOM     40  CE2 TRP A  63     -18.897   5.781   3.864  1.00 35.84     0.042 A 
ATOM     41  CZ3 TRP A  63     -18.822   3.586   5.506  1.00 32.93     0.001 A 
ATOM     42  CH2 TRP A  63     -17.738   3.885   4.665  1.00 39.24     0.002 A 
ATOM     43  CZ2 TRP A  63     -17.758   4.976   3.838  1.00 37.99     0.030 A 
ATOM     44  NE1 TRP A  63     -19.189   6.917   3.159  1.00 37.98    -0.365 N 
ATOM     45  H06 TRP A  63     -18.586   7.357   2.480  1.00 37.98     0.165 HD
ATOM     46  CD1 TRP A  63     -20.437   7.360   3.526  1.00 38.16     0.096 A 
ENDBRANCH  36  37
ENDBRANCH  35  36
END_RES TRP A  63
BEGIN_RES LEU A  66
REMARK  2 active torsions:
REMARK  status: ('A' for Active; 'I' for Inactive)
REMARK   16  A    between atoms: CA   and  CB  
REMARK   17  A    between atoms: CB   and  CG  
ROOT
ATOM     47  CA  LEU A  66     -20.004   6.489  11.120  1.00 10.90     0.177 C 
ENDROOT
BRANCH  47  48
ATOM     48  CB  LEU A  66     -19.626   5.453  10.069  1.00 13.57     0.038 C 
BRANCH  48  49
ATOM     49  CG  LEU A  66     -19.574   3.992  10.514  1.00  8.73    -0.020 C 
ATOM     50  CD1 LEU A  66     -19.963   3.864  11.964  1.00 14.23     0.009 C 
ATOM     51  CD2 LEU A  66     -20.520   3.196   9.652  1.00  1.92     0.009 C 
ENDBRANCH  48  49
ENDBRANCH  47  48
END_RES LEU A  66
BEGIN_RES PHE A  70
REMARK  2 active torsions:
REMARK  status: ('A' for Active; 'I' for Inactive)
REMARK   18  A    between atoms: CA   and  CB  
REMARK   19  A    between atoms: CB   and  CG  
ROOT
ATOM     52  CA  PHE A  70     -14.974   9.434  13.165  1.00  8.78     0.180 C 
ENDROOT
BRANCH  52  53
ATOM     53  CB  PHE A  70     -14.707   9.132  11.681  1.00  6.33     0.073 C 
BRANCH  53  54
ATOM     54  CG  PHE A  70     -13.935   7.860  11.459  1.00  3.42    -0.056 A 
ATOM     55  CD1 PHE A  70     -13.462   7.114  12.528  1.00 13.88     0.007 A 
ATOM     56  CE1 PHE A  70     -12.700   5.952  12.313  1.00 12.71     0.001 A 
ATOM     57  CZ  PHE A  70     -12.411   5.533  11.014  1.00  4.21     0.000 A 
ATOM     58  CE2 PHE A  70     -12.880   6.267   9.940  1.00  2.83     0.001 A 
ATOM     59  CD2 PHE A  70     -13.640   7.427  10.166  1.00  1.00     0.007 A 
ENDBRANCH  53  54
ENDBRANCH  52  53
END_RES PHE A  70
BEGIN_RES TYR A  73
REMARK  3 active torsions:
REMARK  status: ('A' for Active; 'I' for Inactive)
REMARK   20  A    between atoms: CA   and  CB  
REMARK   21  A    between atoms: CB   and  CG  
REMARK   22  A    between atoms: CZ   and  OH  
ROOT
ATOM     60  CA  TYR A  73     -13.212  10.166  17.260  1.00 12.17     0.180 C 
ENDROOT
BRANCH  60  61
ATOM     61  CB  TYR A  73     -13.301   8.846  16.517  1.00 12.84     0.073 C 
BRANCH  61  62
ATOM     62  CG  TYR A  73     -11.995   8.137  16.428  1.00 15.89    -0.056 A 
ATOM     63  CD1 TYR A  73     -11.389   7.618  17.551  1.00 16.00     0.010 A 
ATOM     64  CE1 TYR A  73     -10.151   6.981  17.475  1.00 13.55     0.037 A 
ATOM     65  CZ  TYR A  73      -9.522   6.870  16.251  1.00 18.13     0.065 A 
ATOM     66  CE2 TYR A  73     -10.105   7.379  15.114  1.00 15.89     0.037 A 
ATOM     67  CD2 TYR A  73     -11.340   8.010  15.209  1.00 21.86     0.010 A 
BRANCH  65  68
ATOM     68  OH  TYR A  73      -8.305   6.241  16.152  1.00 12.12    -0.361 OA
ATOM     69  H08 TYR A  73      -8.014   5.967  17.024  1.00 12.12     0.217 HD
ENDBRANCH  65  68
ENDBRANCH  61  62
ENDBRANCH  60  61
END_RES TYR A  73
BEGIN_RES PHE A  77
REMARK  2 active torsions:
REMARK  status: ('A' for Active; 'I' for Inactive)
REMARK   23  A    between atoms: CA   and  CB  
REMARK   24  A    between atoms: CB   and  CG  
ROOT
ATOM     70  CA  PHE A  77      -8.400  10.581  20.110  1.00 17.17     0.180 C 
ENDROOT
BRANCH  70  71
ATOM     71  CB  PHE A  77      -8.228   9.750  18.851  1.00 10.44     0.073 C 
BRANCH  71  72
ATOM     72  CG  PHE A  77      -7.082   8.790  18.914  1.00  6.07    -0.056 A 
ATOM     73  CD2 PHE A  77      -5.937   9.018  18.185  1.00  9.61     0.007 A 
ATOM     74  CE2 PHE A  77      -4.867   8.133  18.239  1.00  1.00     0.001 A 
ATOM     75  CZ  PHE A  77      -4.944   7.004  19.037  1.00  1.92     0.000 A 
ATOM     76  CE1 PHE A  77      -6.081   6.762  19.774  1.00  9.25     0.001 A 
ATOM     77  CD1 PHE A  77      -7.148   7.657  19.709  1.00  9.63     0.007 A 
ENDBRANCH  71  72
ENDBRANCH  70  71
END_RES PHE A  77
BEGIN_RES LEU A  96
REMARK  2 active torsions:
REMARK  status: ('A' for Active; 'I' for Inactive)
REMARK   25  A    between atoms: CA   and  CB  
REMARK   26  A    between atoms: CB   and  CG  
ROOT
ATOM     78  CA  LEU A  96       0.717   6.481  17.359  1.00 16.08     0.177 C 
ENDROOT
BRANCH  78  79
ATOM     79  CB  LEU A  96      -0.370   7.101  18.230  1.00 18.83     0.038 C 
BRANCH  79  80
ATOM     80  CG  LEU A  96      -0.108   7.009  19.733  1.00 19.03    -0.020 C 
ATOM     81  CD1 LEU A  96       0.603   8.265  20.182  1.00 28.17     0.009 C 
ATOM     82  CD2 LEU A  96      -1.412   6.902  20.490  1.00 22.01     0.009 C 
ENDBRANCH  79  80
ENDBRANCH  78  79
END_RES LEU A  96
BEGIN_RES VAL A  98
REMARK  1 active torsions:
REMARK  status: ('A' for Active; 'I' for Inactive)
REMARK   27  A    between atoms: CA   and  CB  
ROOT
ATOM     83  CA  VAL A  98      -3.928   2.082  14.897  1.00 19.83     0.180 C 
ENDROOT
BRANCH  83  84
ATOM     84  CB  VAL A  98      -5.203   2.807  15.281  1.00 17.87     0.009 C 
ATOM     85  CG2 VAL A  98      -5.044   3.450  16.634  1.00 29.90     0.012 C 
ATOM     86  CG1 VAL A  98      -6.360   1.830  15.283  1.00 14.79     0.012 C 
ENDBRANCH  83  84
END_RES VAL A  98
BEGIN_RES ASN A 112
REMARK  2 active torsions:
REMARK  status: ('A' for Active; 'I' for Inactive)
REMARK   28  A    between atoms: CA   and  CB  
REMARK   29  A    between atoms: CB   and  CG  
REMARK       I    between atoms: CG   and  ND2 
ROOT
ATOM     87  CA  ASN A 112     -11.790  -8.793  14.069  1.00 37.70     0.185 C 
ENDROOT
BRANCH  87  88
ATOM     88  CB  ASN A 112     -12.992  -7.945  14.465  1.00 26.24     0.137 C 
BRANCH  88  89
ATOM     89  CG  ASN A 112     -13.811  -8.561  15.577  1.00 21.77     0.217 C 
ATOM     90  ND2 ASN A 112     -14.958  -9.135  15.215  1.00  9.31    -0.370 N 
ATOM     91  H04 ASN A 112     -15.551  -9.562  15.912  1.00  9.31     0.159 HD
ATOM     92  H05 ASN A 112     -15.233  -9.143  14.243  1.00  9.31     0.159 HD
ATOM     93  OD1 ASN A 112     -13.423  -8.518  16.751  1.00 21.61    -0.274 OA
ENDBRANCH  88  89
ENDBRANCH  87  88
END_RES ASN A 112
BEGIN_RES PHE A 114
REMARK  2 active torsions:
REMARK  status: ('A' for Active; 'I' for Inactive)
REMARK   30  A    between atoms: CA   and  CB  
REMARK   31  A    between atoms: CB   and  CG  
ROOT
ATOM     94  CA  PHE A 114      -7.754  -3.619  17.012  1.00 26.06     0.180 C 
ENDROOT
BRANCH  94  95
ATOM     95  CB  PHE A 114      -8.890  -3.080  17.867  1.00 19.95     0.073 C 
BRANCH  95  96
ATOM     96  CG  PHE A 114      -9.074  -1.602  17.744  1.00 17.65    -0.056 A 
ATOM     97  CD1 PHE A 114      -8.006  -0.732  17.938  1.00 13.01     0.007 A 
ATOM     98  CE1 PHE A 114      -8.182   0.643  17.852  1.00  6.74     0.001 A 
ATOM     99  CZ  PHE A 114      -9.439   1.168  17.566  1.00  6.27     0.000 A 
ATOM    100  CE2 PHE A 114     -10.510   0.311  17.369  1.00 17.36     0.001 A 
ATOM    101  CD2 PHE A 114     -10.325  -1.073  17.458  1.00 18.39     0.007 A 
ENDBRANCH  95  96
ENDBRANCH  94  95
END_RES PHE A 114
BEGIN_RES VAL A 116
REMARK  1 active torsions:
REMARK  status: ('A' for Active; 'I' for Inactive)
REMARK   32  A    between atoms: CA   and  CB  
ROOT
ATOM    102  CA  VAL A 116      -2.467   0.283  18.565  1.00 13.48     0.180 C 
ENDROOT
BRANCH 102 103
ATOM    103  CB  VAL A 116      -3.101   1.238  19.599  1.00 20.86     0.009 C 
ATOM    104  CG1 VAL A 116      -2.603   2.664  19.351  1.00 25.01     0.012 C 
ATOM    105  CG2 VAL A 116      -4.609   1.159  19.551  1.00 25.34     0.012 C 
ENDBRANCH 102 103
END_RES VAL A 116
BEGIN_RES ILE A 123
REMARK  2 active torsions:
REMARK  status: ('A' for Active; 'I' for Inactive)
REMARK   33  A    between atoms: CA   and  CB  
REMARK   34  A    between atoms: CB   and  CG1 
ROOT
ATOM    106  CA  ILE A 123       1.557  -1.626  23.222  1.00 15.07     0.180 C 
ENDROOT
BRANCH 106 107
ATOM    107  CB  ILE A 123       1.697  -0.112  23.461  1.00 14.41     0.013 C 
ATOM    108  CG2 ILE A 123       3.106   0.210  23.927  1.00 18.35     0.012 C 
BRANCH 107 109
ATOM    109  CG1 ILE A 123       1.375   0.658  22.183  1.00 15.23     0.002 C 
ATOM    110  CD1 ILE A 123       0.248   1.650  22.341  1.00 14.67     0.005 C 
ENDBRANCH 107 109
ENDBRANCH 106 107
END_RES ILE A 123
BEGIN_RES LEU A 124
REMARK  2 active torsions:
REMARK  status: ('A' for Active; 'I' for Inactive)
REMARK   35  A    between atoms: CA   and  CB  
REMARK   36  A    between atoms: CB   and  CG  
ROOT
ATOM    111  CA  LEU A 124      -2.057  -2.686  23.524  1.00 11.86     0.177 C 
ENDROOT
BRANCH 111 112
ATOM    112  CB  LEU A 124      -2.698  -1.652  24.429  1.00 14.60     0.038 C 
BRANCH 112 113
ATOM    113  CG  LEU A 124      -2.634  -0.253  23.834  1.00 16.19    -0.020 C 
ATOM    114  CD1 LEU A 124      -4.035   0.139  23.325  1.00 22.07     0.009 C 
ATOM    115  CD2 LEU A 124      -2.122   0.712  24.873  1.00  9.12     0.009 C 
ENDBRANCH 112 113
ENDBRANCH 111 112
END_RES LEU A 124
BEGIN_RES PHE A 126
REMARK  2 active torsions:
REMARK  status: ('A' for Active; 'I' for Inactive)
REMARK   37  A    between atoms: CA   and  CB  
REMARK   38  A    between atoms: CB   and  CG  
ROOT
ATOM    116  CA  PHE A 126      -8.784  -4.792  22.233  1.00 23.15     0.180 C 
ENDROOT
BRANCH 116 117
ATOM    117  CB  PHE A 126      -9.823  -4.011  21.461  1.00 20.65     0.073 C 
BRANCH 117 118
ATOM    118  CG  PHE A 126     -10.948  -3.541  22.297  1.00 23.65    -0.056 A 
ATOM    119  CD2 PHE A 126     -10.756  -2.556  23.250  1.00 36.63     0.007 A 
ATOM    120  CE2 PHE A 126     -11.824  -2.110  24.041  1.00 36.27     0.001 A 
ATOM    121  CZ  PHE A 126     -13.086  -2.658  23.871  1.00 18.06     0.000 A 
ATOM    122  CE1 PHE A 126     -13.282  -3.639  22.920  1.00  5.50     0.001 A 
ATOM    123  CD1 PHE A 126     -12.215  -4.075  22.135  1.00 15.29     0.007 A 
ENDBRANCH 117 118
ENDBRANCH 116 117
END_RES PHE A 126
BEGIN_RES TRP A 131
REMARK  2 active torsions:
REMARK  status: ('A' for Active; 'I' for Inactive)
REMARK   39  A    between atoms: CA   and  CB  
REMARK   40  A    between atoms: CB   and  CG  
ROOT
ATOM    124  CA  TRP A 131      -8.096  -3.335  26.542  1.00 14.52     0.181 C 
ENDROOT
BRANCH 124 125
ATOM    125  CB  TRP A 131      -7.651  -1.877  26.607  1.00 13.06     0.075 C 
BRANCH 125 126
ATOM    126  CG  TRP A 131      -8.026  -1.058  25.392  1.00 16.97    -0.028 A 
ATOM    127  CD2 TRP A 131      -9.109  -0.129  25.291  1.00 11.34    -0.002 A 
ATOM    128  CE2 TRP A 131      -9.086   0.408  23.990  1.00  5.87     0.042 A 
ATOM    129  CE3 TRP A 131     -10.099   0.299  26.182  1.00  3.80     0.014 A 
ATOM    130  CZ2 TRP A 131     -10.014   1.356  23.556  1.00  1.35     0.030 A 
ATOM    131  NE1 TRP A 131      -8.038  -0.168  23.325  1.00 13.90    -0.365 N 
ATOM    132  CH2 TRP A 131     -10.974   1.760  24.451  1.00  1.00     0.002 A 
ATOM    133  CZ3 TRP A 131     -11.023   1.237  25.758  1.00  1.00     0.001 A 
ATOM    134  CD1 TRP A 131      -7.405  -1.047  24.173  1.00 17.22     0.096 A 
ATOM    135  H07 TRP A 131      -7.772   0.022  22.370  1.00 13.90     0.165 HD
ENDBRANCH 125 126
ENDBRANCH 124 125
END_RES TRP A 131
BEGIN_RES LEU A 148
REMARK  2 active torsions:
REMARK  status: ('A' for Active; 'I' for Inactive)
REMARK   41  A    between atoms: CA   and  CB  
REMARK   42  A    between atoms: CB   and  CG  
ROOT
ATOM    136  CA  LEU A 148      -9.018   3.259  29.295  1.00 16.99     0.177 C 
ENDROOT
BRANCH 136 137
ATOM    137  CB  LEU A 148      -8.166   2.574  28.236  1.00  6.39     0.038 C 
BRANCH 137 138
ATOM    138  CG  LEU A 148      -8.011   3.169  26.851  1.00  1.00    -0.020 C 
ATOM    139  CD2 LEU A 148      -6.776   2.632  26.189  1.00  1.00     0.009 C 
ATOM    140  CD1 LEU A 148      -7.930   4.678  26.989  1.00  2.71     0.009 C 
ENDBRANCH 137 138
ENDBRANCH 136 137
END_RES LEU A 148
BEGIN_RES THR A 154
REMARK  2 active torsions:
REMARK  status: ('A' for Active; 'I' for Inactive)
REMARK   43  A    between atoms: CA   and  CB  
REMARK   44  A    between atoms: CB   and  OG1 
ROOT
ATOM    141  CA  THR A 154     -15.990   3.959  24.426  1.00 20.45     0.205 C 
ENDROOT
BRANCH 141 142
ATOM    142  CB  THR A 154     -14.777   4.829  24.694  1.00 16.79     0.146 C 
ATOM    143  CG2 THR A 154     -13.600   4.356  23.863  1.00 20.24     0.042 C 
BRANCH 142 144
ATOM    144  OG1 THR A 154     -15.086   6.181  24.332  1.00 18.84    -0.393 OA
ATOM    145  H06 THR A 154     -15.780   6.516  24.905  1.00 18.84     0.210 HD
ENDBRANCH 142 144
ENDBRANCH 141 142
END_RES THR A 154
BEGIN_RES VAL A 158
REMARK  1 active torsions:
REMARK  status: ('A' for Active; 'I' for Inactive)
REMARK   45  A    between atoms: CA   and  CB  
ROOT
ATOM    146  CA  VAL A 158     -15.487  -0.189  19.892  1.00 15.49     0.180 C 
ENDROOT
BRANCH 146 147
ATOM    147  CB  VAL A 158     -14.291  -0.273  20.822  1.00  6.52     0.009 C 
ATOM    148  CG1 VAL A 158     -13.213  -1.156  20.236  1.00  1.00     0.012 C 
ATOM    149  CG2 VAL A 158     -13.770   1.111  21.061  1.00  5.99     0.012 C 
ENDBRANCH 146 147
END_RES VAL A 158
BEGIN_RES LEU A 161
REMARK  2 active torsions:
REMARK  status: ('A' for Active; 'I' for Inactive)
REMARK   46  A    between atoms: CA   and  CB  
REMARK   47  A    between atoms: CB   and  CG  
ROOT
ATOM    150  CA  LEU A 161     -18.031  -1.858  15.935  1.00 13.31     0.177 C 
ENDROOT
BRANCH 150 151
ATOM    151  CB  LEU A 161     -17.046  -0.706  16.001  1.00 14.13     0.038 C 
BRANCH 151 152
ATOM    152  CG  LEU A 161     -17.562   0.650  15.537  1.00 19.39    -0.020 C 
ATOM    153  CD2 LEU A 161     -17.415   0.781  14.041  1.00 27.75     0.009 C 
ATOM    154  CD1 LEU A 161     -16.777   1.732  16.229  1.00 18.59     0.009 C 
ENDBRANCH 151 152
ENDBRANCH 150 151
END_RES LEU A 161
BEGIN_RES GLN A 168
REMARK  3 active torsions:
REMARK  status: ('A' for Active; 'I' for Inactive)
REMARK   48  A    between atoms: CA   and  CB  
REMARK   49  A    between atoms: CB   and  CG  
REMARK   50  A    between atoms: CG   and  CD  
REMARK       I    between atoms: CD   and  NE2 
ROOT
ATOM    155  CA  GLN A 168     -22.035  -6.020   8.155  1.00 30.94     0.177 C 
ENDROOT
BRANCH 155 156
ATOM    156  CB  GLN A 168     -23.054  -5.218   8.946  1.00 41.76     0.044 C 
BRANCH 156 157
ATOM    157  CG  GLN A 168     -24.422  -5.840   9.012  1.00 61.20     0.105 C 
BRANCH 157 158
ATOM    158  CD  GLN A 168     -24.458  -7.031   9.949  1.00 75.49     0.215 C 
ATOM    159  NE2 GLN A 168     -24.957  -8.162   9.447  1.00 85.00    -0.370 N 
ATOM    160  H06 GLN A 168     -25.010  -8.990  10.023  1.00 85.00     0.159 HD
ATOM    161  H07 GLN A 168     -25.283  -8.190   8.491  1.00 85.00     0.159 HD
ATOM    162  OE1 GLN A 168     -24.048  -6.940  11.115  1.00 73.64    -0.274 OA
ENDBRANCH 157 158
ENDBRANCH 156 157
ENDBRANCH 155 156
END_RES GLN A 168
ENDMDL
