REMARK  Name = human_CD1d_CHAPS_pred.rank_0
REMARK  12 active torsions:
REMARK  status: ('A' for Active; 'I' for Inactive)
REMARK    1  A    between atoms: N_2  and  C_14
REMARK    2  A    between atoms: S_4  and  C_23
REMARK    3  A    between atoms: C_5  and  C_8
REMARK    4  A    between atoms: C_5  and  C_24
REMARK    5  A    between atoms: N_6  and  C_18
REMARK    6  A    between atoms: N_6  and  C_21
REMARK    7  A    between atoms: C_8  and  C_10
REMARK    8  A    between atoms: C_10  and  C_12
REMARK    9  A    between atoms: C_14  and  C_16
REMARK   10  A    between atoms: C_16  and  C_18
REMARK   11  A    between atoms: C_21  and  C_22
REMARK   12  A    between atoms: C_22  and  C_23
REMARK                            x       y       z     vdW  Elec       q    Type
REMARK                         _______ _______ _______ _____ _____    ______ ____
ROOT
ATOM      1  O   UNL     1     -13.540  12.573 -10.210  0.00  0.00    +0.000 OA
ATOM      2  O   UNL     1     -10.749  16.529 -12.688  0.00  0.00    +0.000 OA
ATOM      3  O   UNL     1      -7.041  14.807 -13.694  0.00  0.00    +0.000 OA
ATOM      4  C   UNL     1      -6.931  16.554 -16.071  0.00  0.00    +0.000 C 
ATOM      5  C   UNL     1      -7.823  17.763 -16.456  0.00  0.00    +0.000 C 
ATOM      6  C   UNL     1      -9.222  17.455 -15.955  0.00  0.00    +0.000 C 
ATOM      7  C   UNL     1      -9.057  16.215 -15.094  0.00  0.00    +0.000 C 
ATOM      8  C   UNL     1      -7.983  15.425 -15.841  0.00  0.00    +0.000 C 
ATOM      9  C   UNL     1      -7.590  14.274 -14.916  0.00  0.00    +0.000 C 
ATOM     10  C   UNL     1      -8.829  13.355 -14.596  0.00  0.00    +0.000 C 
ATOM     11  C   UNL     1     -10.040  14.113 -14.035  0.00  0.00    +0.000 C 
ATOM     12  C   UNL     1     -10.334  15.400 -14.805  0.00  0.00    +0.000 C 
ATOM     13  C   UNL     1     -11.306  16.281 -13.956  0.00  0.00    +0.000 C 
ATOM     14  C   UNL     1     -12.653  15.475 -13.865  0.00  0.00    +0.000 C 
ATOM     15  C   UNL     1     -12.571  14.041 -13.485  0.00  0.00    +0.000 C 
ATOM     16  C   UNL     1     -11.326  13.214 -13.908  0.00  0.00    +0.000 C 
ATOM     17  C   UNL     1     -11.010  12.020 -12.960  0.00  0.00    +0.000 C 
ATOM     18  C   UNL     1     -11.607  12.086 -11.556  0.00  0.00    +0.000 C 
ATOM     19  C   UNL     1     -13.002  12.636 -11.553  0.00  0.00    +0.000 C 
ATOM     20  C   UNL     1     -12.892  14.047 -11.996  0.00  0.00    +0.000 C 
ATOM     21  C   UNL     1     -11.715  12.603 -15.177  0.00  0.00    +0.000 C 
ATOM     22  C   UNL     1      -8.413  14.873 -17.194  0.00  0.00    +0.000 C 
ENDROOT
BRANCH   4  24
ATOM     23  C   UNL     1      -4.878  15.211 -16.687  0.00  0.00    +0.000 C 
ATOM     24  C   UNL     1      -5.829  16.299 -17.110  0.00  0.00    +0.000 C 
BRANCH  24  25
ATOM     25  C   UNL     1      -5.036  17.639 -17.315  0.00  0.00    +0.000 C 
BRANCH  25  26
ATOM     26  C   UNL     1      -4.957  17.955 -18.796  0.00  0.00    +0.000 C 
BRANCH  26  29
ATOM     27  N   UNL     1      -6.507  19.547 -19.854  0.00  0.00    +0.000 NA
ATOM     28  O   UNL     1      -5.016  20.314 -18.348  0.00  0.00    +0.000 OA
ATOM     29  C   UNL     1      -5.473  19.389 -18.997  0.00  0.00    +0.000 C 
BRANCH  27  30
ATOM     30  C   UNL     1      -7.177  20.890 -19.970  0.00  0.00    +0.000 C 
BRANCH  30  31
ATOM     31  C   UNL     1      -6.483  21.794 -21.004  0.00  0.00    +0.000 C 
BRANCH  31  32
ATOM     32  C   UNL     1      -7.005  21.564 -22.373  0.00  0.00    +0.000 C 
BRANCH  32  33
ATOM     33  N   UNL     1      -6.188  22.273 -23.377  0.00  0.00    +0.000 N 
ATOM     34  C   UNL     1      -6.787  22.033 -24.673  0.00  0.00    +0.000 C 
ATOM     35  C   UNL     1      -6.113  23.705 -23.136  0.00  0.00    +0.000 C 
BRANCH  33  36
ATOM     36  C   UNL     1      -4.794  21.691 -23.360  0.00  0.00    +0.000 C 
BRANCH  36  37
ATOM     37  C   UNL     1      -3.773  22.503 -22.488  0.00  0.00    +0.000 C 
BRANCH  37  38
ATOM     38  C   UNL     1      -2.652  21.602 -22.061  0.00  0.00    +0.000 C 
BRANCH  38  39
ATOM     39  S   UNL     1      -1.614  22.473 -21.022  0.00  0.00    +0.000 S 
ATOM     40  O   UNL     1      -0.788  21.528 -20.293  0.00  0.00    +0.000 OA
ATOM     41  O   UNL     1      -2.377  23.322 -20.092  0.00  0.00    +0.000 OA
ATOM     42  O   UNL     1      -0.780  23.356 -21.856  0.00  0.00    +0.000 OA
ENDBRANCH  38  39
ENDBRANCH  37  38
ENDBRANCH  36  37
ENDBRANCH  33  36
ENDBRANCH  32  33
ENDBRANCH  31  32
ENDBRANCH  30  31
ENDBRANCH  27  30
ENDBRANCH  26  29
ENDBRANCH  25  26
ENDBRANCH  24  25
ENDBRANCH   4  24
TORSDOF 12
