human_CD1d_CHAPS_pred.rank_0
  PyMOL3.1          3D                             0

 42 45  0  0  0  0  0  0  0  0999 V2000
   -4.8780   15.2110  -16.6870 C   0  0  0  0  0  0  0  0  0  0  0  0
   -6.5070   19.5470  -19.8540 N   0  0  0  0  0  0  0  0  0  0  0  0
   -5.0160   20.3140  -18.3480 O   0  0  0  0  0  0  0  0  0  0  0  0
   -1.6140   22.4730  -21.0220 S   0  0  0  0  0  0  0  0  0  0  0  0
   -5.8290   16.2990  -17.1100 C   0  0  0  0  0  0  0  0  0  0  0  0
   -6.1880   22.2730  -23.3770 N   0  0  0  0  0  0  0  0  0  0  0  0
   -0.7880   21.5280  -20.2930 O   0  0  0  0  0  0  0  0  0  0  0  0
   -5.0360   17.6390  -17.3150 C   0  0  0  0  0  0  0  0  0  0  0  0
   -2.3770   23.3220  -20.0920 O   0  0  0  0  0  0  0  0  0  0  0  0
   -4.9570   17.9550  -18.7960 C   0  0  0  0  0  0  0  0  0  0  0  0
   -0.7800   23.3560  -21.8560 O   0  0  0  0  0  0  0  0  0  0  0  0
   -5.4730   19.3890  -18.9970 C   0  0  0  0  0  0  0  0  0  0  0  0
  -13.5400   12.5730  -10.2100 O   0  0  0  0  0  0  0  0  0  0  0  0
   -7.1770   20.8900  -19.9700 C   0  0  0  0  0  0  0  0  0  0  0  0
  -10.7490   16.5290  -12.6880 O   0  0  0  0  0  0  0  0  0  0  0  0
   -6.4830   21.7940  -21.0040 C   0  0  0  0  0  0  0  0  0  0  0  0
   -7.0410   14.8070  -13.6940 O   0  0  0  0  0  0  0  0  0  0  0  0
   -7.0050   21.5640  -22.3730 C   0  0  0  0  0  0  0  0  0  0  0  0
   -6.7870   22.0330  -24.6730 C   0  0  0  0  0  0  0  0  0  0  0  0
   -6.1130   23.7050  -23.1360 C   0  0  0  0  0  0  0  0  0  0  0  0
   -4.7940   21.6910  -23.3600 C   0  0  0  0  0  0  0  0  0  0  0  0
   -3.7730   22.5030  -22.4880 C   0  0  0  0  0  0  0  0  0  0  0  0
   -2.6520   21.6020  -22.0610 C   0  0  0  0  0  0  0  0  0  0  0  0
   -6.9310   16.5540  -16.0710 C   0  0  0  0  0  0  0  0  0  0  0  0
   -7.8230   17.7630  -16.4560 C   0  0  0  0  0  0  0  0  0  0  0  0
   -9.2220   17.4550  -15.9550 C   0  0  0  0  0  0  0  0  0  0  0  0
   -9.0570   16.2150  -15.0940 C   0  0  0  0  0  0  0  0  0  0  0  0
   -7.9830   15.4250  -15.8410 C   0  0  0  0  0  0  0  0  0  0  0  0
   -7.5900   14.2740  -14.9160 C   0  0  0  0  0  0  0  0  0  0  0  0
   -8.8290   13.3550  -14.5960 C   0  0  0  0  0  0  0  0  0  0  0  0
  -10.0400   14.1130  -14.0350 C   0  0  0  0  0  0  0  0  0  0  0  0
  -10.3340   15.4000  -14.8050 C   0  0  0  0  0  0  0  0  0  0  0  0
  -11.3060   16.2810  -13.9560 C   0  0  0  0  0  0  0  0  0  0  0  0
  -12.6530   15.4750  -13.8650 C   0  0  0  0  0  0  0  0  0  0  0  0
  -12.5710   14.0410  -13.4850 C   0  0  0  0  0  0  0  0  0  0  0  0
  -11.3260   13.2140  -13.9080 C   0  0  0  0  0  0  0  0  0  0  0  0
  -11.0100   12.0200  -12.9600 C   0  0  0  0  0  0  0  0  0  0  0  0
  -11.6070   12.0860  -11.5560 C   0  0  0  0  0  0  0  0  0  0  0  0
  -13.0020   12.6360  -11.5530 C   0  0  0  0  0  0  0  0  0  0  0  0
  -12.8920   14.0470  -11.9960 C   0  0  0  0  0  0  0  0  0  0  0  0
  -11.7150   12.6030  -15.1770 C   0  0  0  0  0  0  0  0  0  0  0  0
   -8.4130   14.8730  -17.1940 C   0  0  0  0  0  0  0  0  0  0  0  0
  1  5  1  0  0  0  0
  2 14  1  0  0  0  0
  4  7  1  0  0  0  0
  4  9  2  0  0  0  0
  4 11  2  0  0  0  0
  5  8  1  0  0  0  0
  5 24  1  0  0  0  0
  6 19  1  0  0  0  0
  6 20  1  0  0  0  0
  6 21  1  0  0  0  0
  8 10  1  0  0  0  0
 10 12  1  0  0  0  0
  2 12  1  0  0  0  0
  3 12  2  0  0  0  0
 14 16  1  0  0  0  0
 16 18  1  0  0  0  0
  6 18  1  0  0  0  0
 21 22  1  0  0  0  0
 22 23  1  0  0  0  0
  4 23  1  0  0  0  0
 24 25  1  0  0  0  0
 24 28  1  0  0  0  0
 25 26  1  0  0  0  0
 26 27  1  0  0  0  0
 27 28  1  0  0  0  0
 27 32  1  0  0  0  0
 28 29  1  0  0  0  0
 28 42  1  0  0  0  0
 17 29  1  0  0  0  0
 29 30  1  0  0  0  0
 30 31  1  0  0  0  0
 31 32  1  0  0  0  0
 31 36  1  0  0  0  0
 32 33  1  0  0  0  0
 15 33  1  0  0  0  0
 33 34  1  0  0  0  0
 34 35  1  0  0  0  0
 35 36  1  0  0  0  0
 35 40  1  0  0  0  0
 36 37  1  0  0  0  0
 36 41  1  0  0  0  0
 37 38  1  0  0  0  0
 38 39  1  0  0  0  0
 13 39  1  0  0  0  0
 39 40  1  0  0  0  0
M  END
$$$$
