MODEL 1
REMARK VINA RESULT:      -6.5      0.000      0.000
REMARK  Name = human_CD1d_tween80_pred.rank_0
REMARK  81 active torsions:
REMARK  status: ('A' for Active; 'I' for Inactive)
REMARK    1  A    between atoms: C_1  and  C_3
REMARK    2  A    between atoms: C_3  and  O_4
REMARK    3  A    between atoms: O_4  and  C_5
REMARK    4  A    between atoms: C_5  and  C_7
REMARK    5  A    between atoms: O_6  and  C_7
REMARK    6  A    between atoms: O_6  and  C_9
REMARK    7  A    between atoms: O_8  and  C_11
REMARK    8  A    between atoms: O_8  and  C_13
REMARK    9  A    between atoms: C_9  and  C_11
REMARK   10  A    between atoms: O_10  and  C_15
REMARK   11  A    between atoms: O_10  and  C_17
REMARK   12  A    between atoms: O_12  and  C_19
REMARK   13  A    between atoms: O_12  and  C_21
REMARK   14  A    between atoms: C_13  and  C_15
REMARK   15  A    between atoms: O_14  and  C_23
REMARK   16  A    between atoms: O_14  and  C_25
REMARK   17  A    between atoms: O_16  and  C_27
REMARK   18  A    between atoms: O_16  and  C_29
REMARK   19  A    between atoms: C_17  and  C_19
REMARK   20  A    between atoms: O_18  and  C_31
REMARK   21  A    between atoms: O_18  and  C_33
REMARK   22  A    between atoms: O_20  and  C_35
REMARK   23  A    between atoms: O_20  and  C_37
REMARK   24  A    between atoms: C_21  and  C_23
REMARK   25  A    between atoms: C_21  and  C_67
REMARK   26  A    between atoms: O_22  and  C_39
REMARK   27  A    between atoms: O_22  and  C_41
REMARK   28  A    between atoms: O_24  and  C_43
REMARK   29  A    between atoms: O_24  and  C_45
REMARK   30  A    between atoms: C_25  and  C_27
REMARK   31  A    between atoms: O_28  and  C_69
REMARK   32  A    between atoms: O_28  and  C_70
REMARK   33  A    between atoms: C_29  and  C_31
REMARK   34  A    between atoms: O_30  and  C_71
REMARK   35  A    between atoms: O_30  and  C_72
REMARK   36  A    between atoms: O_32  and  C_73
REMARK   37  A    between atoms: O_32  and  C_74
REMARK   38  A    between atoms: C_33  and  C_35
REMARK   39  A    between atoms: O_34  and  C_75
REMARK   40  A    between atoms: O_34  and  C_76
REMARK   41  A    between atoms: O_36  and  C_77
REMARK   42  A    between atoms: O_36  and  C_78
REMARK   43  A    between atoms: C_37  and  C_39
REMARK   44  A    between atoms: O_40  and  C_80
REMARK   45  A    between atoms: O_40  and  C_81
REMARK   46  A    between atoms: C_41  and  C_43
REMARK   47  A    between atoms: O_42  and  C_82
REMARK   48  A    between atoms: O_42  and  C_83
REMARK   49  A    between atoms: O_44  and  C_84
REMARK   50  A    between atoms: O_44  and  C_85
REMARK   51  A    between atoms: C_45  and  C_47
REMARK   52  A    between atoms: O_46  and  C_86
REMARK   53  A    between atoms: O_46  and  C_87
REMARK   54  A    between atoms: C_47  and  C_49
REMARK   55  A    between atoms: O_48  and  C_88
REMARK   56  A    between atoms: O_48  and  C_89
REMARK   57  A    between atoms: C_49  and  C_51
REMARK   58  A    between atoms: C_51  and  C_53
REMARK   59  A    between atoms: C_53  and  C_54
REMARK   60  A    between atoms: C_54  and  C_55
REMARK   61  A    between atoms: C_55  and  C_56
REMARK   62  A    between atoms: C_56  and  C_57
REMARK   63  A    between atoms: C_57  and  C_58
REMARK   64  A    between atoms: C_58  and  C_59
REMARK   65  A    between atoms: C_59  and  C_60
REMARK   66  A    between atoms: C_60  and  C_61
REMARK   67  A    between atoms: C_61  and  C_62
REMARK   68  A    between atoms: C_62  and  C_63
REMARK   69  A    between atoms: C_63  and  C_64
REMARK   70  A    between atoms: C_64  and  C_65
REMARK   71  A    between atoms: C_67  and  C_68
REMARK   72  A    between atoms: C_70  and  C_71
REMARK   73  A    between atoms: C_72  and  C_73
REMARK   74  A    between atoms: C_74  and  C_75
REMARK   75  A    between atoms: C_76  and  C_77
REMARK   76  A    between atoms: C_78  and  C_79
REMARK   77  A    between atoms: C_81  and  C_82
REMARK   78  A    between atoms: C_83  and  C_84
REMARK   79  A    between atoms: C_85  and  C_86
REMARK   80  A    between atoms: C_87  and  C_88
REMARK   81  A    between atoms: C_89  and  C_90
REMARK                            x       y       z     vdW  Elec       q    Type
REMARK                         _______ _______ _______ _____ _____    ______ ____
ROOT
ATOM      1  C   UNL     1     -16.658   8.692  19.488  0.00  0.00    +0.000 C 
ENDROOT
BRANCH   1   2
ATOM      2  C   UNL     1     -15.439   9.588  20.196  0.00  0.00    +0.000 C 
BRANCH   2   4
ATOM      3  O   UNL     1     -15.695  10.692  22.327  0.00  0.00    +0.000 OA
ATOM      4  C   UNL     1     -15.473   9.485  21.686  0.00  0.00    +0.000 C 
ATOM      5  C   UNL     1     -14.082   9.186  22.309  0.00  0.00    +0.000 C 
ATOM      6  C   UNL     1     -14.343   9.641  23.775  0.00  0.00    +0.000 C 
ATOM      7  C   UNL     1     -15.331  10.723  23.652  0.00  0.00    +0.000 C 
BRANCH   6   8
ATOM      8  O   UNL     1     -13.140  10.213  24.265  0.00  0.00    +0.000 OA
BRANCH   8   9
ATOM      9  C   UNL     1     -13.306  11.101  25.395  0.00  0.00    +0.000 C 
BRANCH   9  10
ATOM     10  C   UNL     1     -12.777  10.425  26.633  0.00  0.00    +0.000 C 
BRANCH  10  11
ATOM     11  O   UNL     1     -13.101  11.205  27.769  0.00  0.00    +0.000 OA
BRANCH  11  12
ATOM     12  C   UNL     1     -12.816  10.511  28.969  0.00  0.00    +0.000 C 
BRANCH  12  13
ATOM     13  C   UNL     1     -13.637   9.253  29.123  0.00  0.00    +0.000 C 
BRANCH  13  14
ATOM     14  O   UNL     1     -12.912   8.388  30.004  0.00  0.00    +0.000 OA
BRANCH  14  15
ATOM     15  C   UNL     1     -11.645   8.870  30.311  0.00  0.00    +0.000 C 
BRANCH  15  16
ATOM     16  C   UNL     1     -10.593   7.748  30.103  0.00  0.00    +0.000 C 
BRANCH  16  17
ATOM     17  O   UNL     1     -10.617   7.418  28.763  0.00  0.00    +0.000 OA
BRANCH  17  18
ATOM     18  C   UNL     1      -9.911   8.363  27.940  0.00  0.00    +0.000 C 
BRANCH  18  19
ATOM     19  C   UNL     1      -8.472   7.861  27.821  0.00  0.00    +0.000 C 
BRANCH  19  20
ATOM     20  O   UNL     1      -7.588   8.914  27.800  0.00  0.00    +0.000 OA
BRANCH  20  21
ATOM     21  C   UNL     1      -8.098  10.032  28.476  0.00  0.00    +0.000 C 
BRANCH  21  23
ATOM     22  O   UNL     1      -5.752  10.196  28.851  0.00  0.00    +0.000 OA
ATOM     23  C   UNL     1      -7.033  10.674  29.320  0.00  0.00    +0.000 C 
ENDBRANCH  21  23
ENDBRANCH  20  21
ENDBRANCH  19  20
ENDBRANCH  18  19
ENDBRANCH  17  18
ENDBRANCH  16  17
ENDBRANCH  15  16
ENDBRANCH  14  15
ENDBRANCH  13  14
ENDBRANCH  12  13
ENDBRANCH  11  12
ENDBRANCH  10  11
ENDBRANCH   9  10
ENDBRANCH   8   9
ENDBRANCH   6   8
BRANCH   5  24
ATOM     24  O   UNL     1     -13.804   7.806  22.252  0.00  0.00    +0.000 OA
BRANCH  24  25
ATOM     25  C   UNL     1     -12.709   7.485  21.413  0.00  0.00    +0.000 C 
BRANCH  25  26
ATOM     26  C   UNL     1     -11.473   8.293  21.751  0.00  0.00    +0.000 C 
BRANCH  26  27
ATOM     27  O   UNL     1     -10.348   7.446  21.647  0.00  0.00    +0.000 OA
BRANCH  27  28
ATOM     28  C   UNL     1     -10.074   6.737  22.844  0.00  0.00    +0.000 C 
BRANCH  28  29
ATOM     29  C   UNL     1      -8.589   6.564  23.088  0.00  0.00    +0.000 C 
BRANCH  29  30
ATOM     30  O   UNL     1      -8.243   5.196  23.028  0.00  0.00    +0.000 OA
BRANCH  30  31
ATOM     31  C   UNL     1      -6.945   4.955  22.469  0.00  0.00    +0.000 C 
BRANCH  31  32
ATOM     32  C   UNL     1      -5.866   5.455  23.424  0.00  0.00    +0.000 C 
BRANCH  32  33
ATOM     33  O   UNL     1      -5.143   4.392  24.013  0.00  0.00    +0.000 OA
BRANCH  33  34
ATOM     34  C   UNL     1      -3.808   4.727  24.314  0.00  0.00    +0.000 C 
BRANCH  34  35
ATOM     35  C   UNL     1      -2.857   4.362  23.153  0.00  0.00    +0.000 C 
BRANCH  35  36
ATOM     36  O   UNL     1      -1.733   5.199  23.213  0.00  0.00    +0.000 OA
BRANCH  36  37
ATOM     37  C   UNL     1      -2.091   6.427  23.824  0.00  0.00    +0.000 C 
BRANCH  37  39
ATOM     38  O   UNL     1      -0.834   8.401  24.343  0.00  0.00    +0.000 OA
ATOM     39  C   UNL     1      -0.932   6.998  24.587  0.00  0.00    +0.000 C 
ENDBRANCH  37  39
ENDBRANCH  36  37
ENDBRANCH  35  36
ENDBRANCH  34  35
ENDBRANCH  33  34
ENDBRANCH  32  33
ENDBRANCH  31  32
ENDBRANCH  30  31
ENDBRANCH  29  30
ENDBRANCH  28  29
ENDBRANCH  27  28
ENDBRANCH  26  27
ENDBRANCH  25  26
ENDBRANCH  24  25
ENDBRANCH   5  24
ENDBRANCH   2   4
ENDBRANCH   1   2
BRANCH   1  40
ATOM     40  O   UNL     1     -17.828   9.519  19.441  0.00  0.00    +0.000 OA
BRANCH  40  41
ATOM     41  C   UNL     1     -18.803   8.972  18.571  0.00  0.00    +0.000 C 
BRANCH  41  42
ATOM     42  C   UNL     1     -19.873  10.008  18.215  0.00  0.00    +0.000 C 
BRANCH  42  43
ATOM     43  O   UNL     1     -20.715   9.479  17.256  0.00  0.00    +0.000 OA
BRANCH  43  44
ATOM     44  C   UNL     1     -21.671   8.565  17.791  0.00  0.00    +0.000 C 
BRANCH  44  45
ATOM     45  C   UNL     1     -22.935   9.322  18.161  0.00  0.00    +0.000 C 
BRANCH  45  46
ATOM     46  O   UNL     1     -23.863   8.435  18.702  0.00  0.00    +0.000 OA
BRANCH  46  47
ATOM     47  C   UNL     1     -23.468   7.111  18.524  0.00  0.00    +0.000 C 
BRANCH  47  48
ATOM     48  C   UNL     1     -24.641   6.310  17.955  0.00  0.00    +0.000 C 
BRANCH  48  49
ATOM     49  O   UNL     1     -24.225   5.681  16.769  0.00  0.00    +0.000 OA
BRANCH  49  50
ATOM     50  C   UNL     1     -24.562   4.314  16.696  0.00  0.00    +0.000 C 
BRANCH  50  51
ATOM     51  C   UNL     1     -23.275   3.512  16.661  0.00  0.00    +0.000 C 
BRANCH  51  52
ATOM     52  O   UNL     1     -23.624   2.185  16.220  0.00  0.00    +0.000 OA
BRANCH  52  53
ATOM     53  C   UNL     1     -24.664   2.190  15.237  0.00  0.00    +0.000 C 
BRANCH  53  54
ATOM     54  C   UNL     1     -24.194   1.654  13.933  0.00  0.00    +0.000 C 
ATOM     55  O   UNL     1     -22.856   1.213  14.079  0.00  0.00    +0.000 OA
ENDBRANCH  53  54
ENDBRANCH  52  53
ENDBRANCH  51  52
ENDBRANCH  50  51
ENDBRANCH  49  50
ENDBRANCH  48  49
ENDBRANCH  47  48
ENDBRANCH  46  47
ENDBRANCH  45  46
ENDBRANCH  44  45
ENDBRANCH  43  44
ENDBRANCH  42  43
ENDBRANCH  41  42
ENDBRANCH  40  41
ENDBRANCH   1  40
BRANCH   1  56
ATOM     56  C   UNL     1     -16.863   7.477  20.341  0.00  0.00    +0.000 C 
BRANCH  56  57
ATOM     57  O   UNL     1     -16.559   6.398  19.561  0.00  0.00    +0.000 OA
BRANCH  57  58
ATOM     58  C   UNL     1     -15.599   5.561  20.269  0.00  0.00    +0.000 C 
BRANCH  58  59
ATOM     59  C   UNL     1     -14.608   4.969  19.287  0.00  0.00    +0.000 C 
BRANCH  59  60
ATOM     60  O   UNL     1     -14.749   5.620  18.048  0.00  0.00    +0.000 OA
BRANCH  60  61
ATOM     61  C   UNL     1     -14.257   4.836  16.990  0.00  0.00    +0.000 C 
BRANCH  61  62
ATOM     62  C   UNL     1     -13.247   3.843  17.581  0.00  0.00    +0.000 C 
BRANCH  62  63
ATOM     63  O   UNL     1     -12.135   3.727  16.674  0.00  0.00    +0.000 OA
BRANCH  63  64
ATOM     64  C   UNL     1     -12.504   4.105  15.343  0.00  0.00    +0.000 C 
BRANCH  64  65
ATOM     65  C   UNL     1     -11.313   3.988  14.411  0.00  0.00    +0.000 C 
BRANCH  65  66
ATOM     66  O   UNL     1     -10.173   3.625  15.199  0.00  0.00    +0.000 OA
BRANCH  66  67
ATOM     67  C   UNL     1      -9.068   3.173  14.381  0.00  0.00    +0.000 C 
BRANCH  67  68
ATOM     68  C   UNL     1      -9.648   2.855  12.971  0.00  0.00    +0.000 C 
BRANCH  68  69
ATOM     69  O   UNL     1      -8.846   3.476  11.972  0.00  0.00    +0.000 OA
BRANCH  69  70
ATOM     70  C   UNL     1      -9.035   4.893  11.911  0.00  0.00    +0.000 C 
BRANCH  70  71
ATOM     71  C   UNL     1      -8.717   5.400  10.541  0.00  0.00    +0.000 C 
BRANCH  71  72
ATOM     72  O   UNL     1      -9.120   4.455   9.587  0.00  0.00    +0.000 OA
BRANCH  72  74
ATOM     73  O   UNL     1      -9.605   5.241   7.574  0.00  0.00    +0.000 OA
ATOM     74  C   UNL     1      -9.969   5.002   8.662  0.00  0.00    +0.000 C 
BRANCH  74  75
ATOM     75  C   UNL     1     -11.360   5.316   9.109  0.00  0.00    +0.000 C 
BRANCH  75  76
ATOM     76  C   UNL     1     -12.145   6.104   8.017  0.00  0.00    +0.000 C 
BRANCH  76  77
ATOM     77  C   UNL     1     -13.361   5.278   7.689  0.00  0.00    +0.000 C 
BRANCH  77  78
ATOM     78  C   UNL     1     -13.209   4.679   6.321  0.00  0.00    +0.000 C 
BRANCH  78  79
ATOM     79  C   UNL     1     -13.833   3.316   6.289  0.00  0.00    +0.000 C 
BRANCH  79  80
ATOM     80  C   UNL     1     -13.959   2.809   7.716  0.00  0.00    +0.000 C 
BRANCH  80  81
ATOM     81  C   UNL     1     -14.817   1.579   7.689  0.00  0.00    +0.000 C 
BRANCH  81  82
ATOM     82  C   UNL     1     -15.250   1.198   9.076  0.00  0.00    +0.000 C 
BRANCH  82  83
ATOM     83  C   UNL     1     -15.132  -0.282   9.262  0.00  0.00    +0.000 C 
BRANCH  83  84
ATOM     84  C   UNL     1     -16.260  -0.723  10.186  0.00  0.00    +0.000 C 
BRANCH  84  85
ATOM     85  C   UNL     1     -16.941   0.490  10.727  0.00  0.00    +0.000 C 
BRANCH  85  86
ATOM     86  C   UNL     1     -16.750   0.504  12.248  0.00  0.00    +0.000 C 
BRANCH  86  87
ATOM     87  C   UNL     1     -15.837   1.659  12.623  0.00  0.00    +0.000 C 
BRANCH  87  88
ATOM     88  C   UNL     1     -14.433   1.100  12.732  0.00  0.00    +0.000 C 
BRANCH  88  89
ATOM     89  C   UNL     1     -14.476  -0.103  13.659  0.00  0.00    +0.000 C 
BRANCH  89  90
ATOM     90  C   UNL     1     -13.147  -0.797  13.665  0.00  0.00    +0.000 C 
ATOM     91  C   UNL     1     -12.730  -1.139  12.247  0.00  0.00    +0.000 C 
ENDBRANCH  89  90
ENDBRANCH  88  89
ENDBRANCH  87  88
ENDBRANCH  86  87
ENDBRANCH  85  86
ENDBRANCH  84  85
ENDBRANCH  83  84
ENDBRANCH  82  83
ENDBRANCH  81  82
ENDBRANCH  80  81
ENDBRANCH  79  80
ENDBRANCH  78  79
ENDBRANCH  77  78
ENDBRANCH  76  77
ENDBRANCH  75  76
ENDBRANCH  74  75
ENDBRANCH  72  74
ENDBRANCH  71  72
ENDBRANCH  70  71
ENDBRANCH  69  70
ENDBRANCH  68  69
ENDBRANCH  67  68
ENDBRANCH  66  67
ENDBRANCH  65  66
ENDBRANCH  64  65
ENDBRANCH  63  64
ENDBRANCH  62  63
ENDBRANCH  61  62
ENDBRANCH  60  61
ENDBRANCH  59  60
ENDBRANCH  58  59
ENDBRANCH  57  58
ENDBRANCH  56  57
ENDBRANCH   1  56
TORSDOF 81
ENDMDL
MODEL 2
REMARK VINA RESULT:      -6.4      2.346      4.501
REMARK  Name = human_CD1d_tween80_pred.rank_0
REMARK  81 active torsions:
REMARK  status: ('A' for Active; 'I' for Inactive)
REMARK    1  A    between atoms: C_1  and  C_3
REMARK    2  A    between atoms: C_3  and  O_4
REMARK    3  A    between atoms: O_4  and  C_5
REMARK    4  A    between atoms: C_5  and  C_7
REMARK    5  A    between atoms: O_6  and  C_7
REMARK    6  A    between atoms: O_6  and  C_9
REMARK    7  A    between atoms: O_8  and  C_11
REMARK    8  A    between atoms: O_8  and  C_13
REMARK    9  A    between atoms: C_9  and  C_11
REMARK   10  A    between atoms: O_10  and  C_15
REMARK   11  A    between atoms: O_10  and  C_17
REMARK   12  A    between atoms: O_12  and  C_19
REMARK   13  A    between atoms: O_12  and  C_21
REMARK   14  A    between atoms: C_13  and  C_15
REMARK   15  A    between atoms: O_14  and  C_23
REMARK   16  A    between atoms: O_14  and  C_25
REMARK   17  A    between atoms: O_16  and  C_27
REMARK   18  A    between atoms: O_16  and  C_29
REMARK   19  A    between atoms: C_17  and  C_19
REMARK   20  A    between atoms: O_18  and  C_31
REMARK   21  A    between atoms: O_18  and  C_33
REMARK   22  A    between atoms: O_20  and  C_35
REMARK   23  A    between atoms: O_20  and  C_37
REMARK   24  A    between atoms: C_21  and  C_23
REMARK   25  A    between atoms: C_21  and  C_67
REMARK   26  A    between atoms: O_22  and  C_39
REMARK   27  A    between atoms: O_22  and  C_41
REMARK   28  A    between atoms: O_24  and  C_43
REMARK   29  A    between atoms: O_24  and  C_45
REMARK   30  A    between atoms: C_25  and  C_27
REMARK   31  A    between atoms: O_28  and  C_69
REMARK   32  A    between atoms: O_28  and  C_70
REMARK   33  A    between atoms: C_29  and  C_31
REMARK   34  A    between atoms: O_30  and  C_71
REMARK   35  A    between atoms: O_30  and  C_72
REMARK   36  A    between atoms: O_32  and  C_73
REMARK   37  A    between atoms: O_32  and  C_74
REMARK   38  A    between atoms: C_33  and  C_35
REMARK   39  A    between atoms: O_34  and  C_75
REMARK   40  A    between atoms: O_34  and  C_76
REMARK   41  A    between atoms: O_36  and  C_77
REMARK   42  A    between atoms: O_36  and  C_78
REMARK   43  A    between atoms: C_37  and  C_39
REMARK   44  A    between atoms: O_40  and  C_80
REMARK   45  A    between atoms: O_40  and  C_81
REMARK   46  A    between atoms: C_41  and  C_43
REMARK   47  A    between atoms: O_42  and  C_82
REMARK   48  A    between atoms: O_42  and  C_83
REMARK   49  A    between atoms: O_44  and  C_84
REMARK   50  A    between atoms: O_44  and  C_85
REMARK   51  A    between atoms: C_45  and  C_47
REMARK   52  A    between atoms: O_46  and  C_86
REMARK   53  A    between atoms: O_46  and  C_87
REMARK   54  A    between atoms: C_47  and  C_49
REMARK   55  A    between atoms: O_48  and  C_88
REMARK   56  A    between atoms: O_48  and  C_89
REMARK   57  A    between atoms: C_49  and  C_51
REMARK   58  A    between atoms: C_51  and  C_53
REMARK   59  A    between atoms: C_53  and  C_54
REMARK   60  A    between atoms: C_54  and  C_55
REMARK   61  A    between atoms: C_55  and  C_56
REMARK   62  A    between atoms: C_56  and  C_57
REMARK   63  A    between atoms: C_57  and  C_58
REMARK   64  A    between atoms: C_58  and  C_59
REMARK   65  A    between atoms: C_59  and  C_60
REMARK   66  A    between atoms: C_60  and  C_61
REMARK   67  A    between atoms: C_61  and  C_62
REMARK   68  A    between atoms: C_62  and  C_63
REMARK   69  A    between atoms: C_63  and  C_64
REMARK   70  A    between atoms: C_64  and  C_65
REMARK   71  A    between atoms: C_67  and  C_68
REMARK   72  A    between atoms: C_70  and  C_71
REMARK   73  A    between atoms: C_72  and  C_73
REMARK   74  A    between atoms: C_74  and  C_75
REMARK   75  A    between atoms: C_76  and  C_77
REMARK   76  A    between atoms: C_78  and  C_79
REMARK   77  A    between atoms: C_81  and  C_82
REMARK   78  A    between atoms: C_83  and  C_84
REMARK   79  A    between atoms: C_85  and  C_86
REMARK   80  A    between atoms: C_87  and  C_88
REMARK   81  A    between atoms: C_89  and  C_90
REMARK                            x       y       z     vdW  Elec       q    Type
REMARK                         _______ _______ _______ _____ _____    ______ ____
ROOT
ATOM      1  C   UNL     1     -16.516   8.372  19.102  0.00  0.00    +0.000 C 
ENDROOT
BRANCH   1   2
ATOM      2  C   UNL     1     -15.347   9.292  19.864  0.00  0.00    +0.000 C 
BRANCH   2   4
ATOM      3  O   UNL     1     -15.830  10.549  21.867  0.00  0.00    +0.000 OA
ATOM      4  C   UNL     1     -15.534   9.301  21.347  0.00  0.00    +0.000 C 
ATOM      5  C   UNL     1     -14.212   9.073  22.129  0.00  0.00    +0.000 C 
ATOM      6  C   UNL     1     -14.625   9.633  23.521  0.00  0.00    +0.000 C 
ATOM      7  C   UNL     1     -15.604  10.686  23.216  0.00  0.00    +0.000 C 
BRANCH   6   8
ATOM      8  O   UNL     1     -13.483  10.260  24.085  0.00  0.00    +0.000 OA
BRANCH   8   9
ATOM      9  C   UNL     1     -13.237   9.936  25.473  0.00  0.00    +0.000 C 
BRANCH   9  10
ATOM     10  C   UNL     1     -13.585  11.128  26.325  0.00  0.00    +0.000 C 
BRANCH  10  11
ATOM     11  O   UNL     1     -12.648  12.163  26.094  0.00  0.00    +0.000 OA
BRANCH  11  12
ATOM     12  C   UNL     1     -13.282  13.342  25.636  0.00  0.00    +0.000 C 
BRANCH  12  13
ATOM     13  C   UNL     1     -12.578  13.961  24.452  0.00  0.00    +0.000 C 
BRANCH  13  14
ATOM     14  O   UNL     1     -13.556  14.726  23.740  0.00  0.00    +0.000 OA
BRANCH  14  15
ATOM     15  C   UNL     1     -14.811  14.685  24.335  0.00  0.00    +0.000 C 
BRANCH  15  16
ATOM     16  C   UNL     1     -15.907  14.936  23.265  0.00  0.00    +0.000 C 
BRANCH  16  17
ATOM     17  O   UNL     1     -16.126  16.298  23.225  0.00  0.00    +0.000 OA
BRANCH  17  18
ATOM     18  C   UNL     1     -17.327  16.653  22.516  0.00  0.00    +0.000 C 
BRANCH  18  19
ATOM     19  C   UNL     1     -17.174  18.110  22.084  0.00  0.00    +0.000 C 
BRANCH  19  20
ATOM     20  O   UNL     1     -16.575  18.194  20.849  0.00  0.00    +0.000 OA
BRANCH  20  21
ATOM     21  C   UNL     1     -16.994  17.160  20.000  0.00  0.00    +0.000 C 
BRANCH  21  23
ATOM     22  O   UNL     1     -14.977  15.896  19.951  0.00  0.00    +0.000 OA
ATOM     23  C   UNL     1     -15.861  16.692  19.131  0.00  0.00    +0.000 C 
ENDBRANCH  21  23
ENDBRANCH  20  21
ENDBRANCH  19  20
ENDBRANCH  18  19
ENDBRANCH  17  18
ENDBRANCH  16  17
ENDBRANCH  15  16
ENDBRANCH  14  15
ENDBRANCH  13  14
ENDBRANCH  12  13
ENDBRANCH  11  12
ENDBRANCH  10  11
ENDBRANCH   9  10
ENDBRANCH   8   9
ENDBRANCH   6   8
BRANCH   5  24
ATOM     24  O   UNL     1     -13.916   7.697  22.206  0.00  0.00    +0.000 OA
BRANCH  24  25
ATOM     25  C   UNL     1     -12.735   7.333  21.514  0.00  0.00    +0.000 C 
BRANCH  25  26
ATOM     26  C   UNL     1     -11.636   8.362  21.678  0.00  0.00    +0.000 C 
BRANCH  26  27
ATOM     27  O   UNL     1     -10.393   7.712  21.512  0.00  0.00    +0.000 OA
BRANCH  27  28
ATOM     28  C   UNL     1     -10.432   6.339  21.866  0.00  0.00    +0.000 C 
BRANCH  28  29
ATOM     29  C   UNL     1      -9.266   5.561  21.295  0.00  0.00    +0.000 C 
BRANCH  29  30
ATOM     30  O   UNL     1      -9.363   4.201  21.662  0.00  0.00    +0.000 OA
BRANCH  30  31
ATOM     31  C   UNL     1      -8.130   3.480  21.534  0.00  0.00    +0.000 C 
BRANCH  31  32
ATOM     32  C   UNL     1      -7.066   4.108  22.429  0.00  0.00    +0.000 C 
BRANCH  32  33
ATOM     33  O   UNL     1      -5.852   4.328  21.739  0.00  0.00    +0.000 OA
BRANCH  33  34
ATOM     34  C   UNL     1      -4.750   4.512  22.597  0.00  0.00    +0.000 C 
BRANCH  34  35
ATOM     35  C   UNL     1      -3.886   5.716  22.161  0.00  0.00    +0.000 C 
BRANCH  35  36
ATOM     36  O   UNL     1      -3.427   6.378  23.308  0.00  0.00    +0.000 OA
BRANCH  36  37
ATOM     37  C   UNL     1      -2.079   6.018  23.554  0.00  0.00    +0.000 C 
BRANCH  37  39
ATOM     38  O   UNL     1      -0.790   6.487  25.520  0.00  0.00    +0.000 OA
ATOM     39  C   UNL     1      -1.386   7.074  24.363  0.00  0.00    +0.000 C 
ENDBRANCH  37  39
ENDBRANCH  36  37
ENDBRANCH  35  36
ENDBRANCH  34  35
ENDBRANCH  33  34
ENDBRANCH  32  33
ENDBRANCH  31  32
ENDBRANCH  30  31
ENDBRANCH  29  30
ENDBRANCH  28  29
ENDBRANCH  27  28
ENDBRANCH  26  27
ENDBRANCH  25  26
ENDBRANCH  24  25
ENDBRANCH   5  24
ENDBRANCH   2   4
ENDBRANCH   1   2
BRANCH   1  40
ATOM     40  O   UNL     1     -17.606   9.245  18.776  0.00  0.00    +0.000 OA
BRANCH  40  41
ATOM     41  C   UNL     1     -18.835   8.541  18.768  0.00  0.00    +0.000 C 
BRANCH  41  42
ATOM     42  C   UNL     1     -20.013   9.485  18.512  0.00  0.00    +0.000 C 
BRANCH  42  43
ATOM     43  O   UNL     1     -20.903   8.877  17.649  0.00  0.00    +0.000 OA
BRANCH  43  44
ATOM     44  C   UNL     1     -22.156   9.555  17.564  0.00  0.00    +0.000 C 
BRANCH  44  45
ATOM     45  C   UNL     1     -23.025   9.151  18.743  0.00  0.00    +0.000 C 
BRANCH  45  46
ATOM     46  O   UNL     1     -23.953   8.200  18.327  0.00  0.00    +0.000 OA
BRANCH  46  47
ATOM     47  C   UNL     1     -23.868   7.035  19.088  0.00  0.00    +0.000 C 
BRANCH  47  48
ATOM     48  C   UNL     1     -23.099   5.975  18.297  0.00  0.00    +0.000 C 
BRANCH  48  49
ATOM     49  O   UNL     1     -23.566   5.976  16.970  0.00  0.00    +0.000 OA
BRANCH  49  50
ATOM     50  C   UNL     1     -24.076   4.735  16.541  0.00  0.00    +0.000 C 
BRANCH  50  51
ATOM     51  C   UNL     1     -23.267   3.636  17.204  0.00  0.00    +0.000 C 
BRANCH  51  52
ATOM     52  O   UNL     1     -23.536   2.424  16.474  0.00  0.00    +0.000 OA
BRANCH  52  53
ATOM     53  C   UNL     1     -24.172   2.670  15.217  0.00  0.00    +0.000 C 
BRANCH  53  54
ATOM     54  C   UNL     1     -23.603   1.824  14.135  0.00  0.00    +0.000 C 
ATOM     55  O   UNL     1     -22.268   1.492  14.473  0.00  0.00    +0.000 OA
ENDBRANCH  53  54
ENDBRANCH  52  53
ENDBRANCH  51  52
ENDBRANCH  50  51
ENDBRANCH  49  50
ENDBRANCH  48  49
ENDBRANCH  47  48
ENDBRANCH  46  47
ENDBRANCH  45  46
ENDBRANCH  44  45
ENDBRANCH  43  44
ENDBRANCH  42  43
ENDBRANCH  41  42
ENDBRANCH  40  41
ENDBRANCH   1  40
BRANCH   1  56
ATOM     56  C   UNL     1     -16.924   7.297  20.063  0.00  0.00    +0.000 C 
BRANCH  56  57
ATOM     57  O   UNL     1     -16.454   6.121  19.553  0.00  0.00    +0.000 OA
BRANCH  57  58
ATOM     58  C   UNL     1     -15.734   5.407  20.599  0.00  0.00    +0.000 C 
BRANCH  58  59
ATOM     59  C   UNL     1     -14.647   4.548  19.985  0.00  0.00    +0.000 C 
BRANCH  59  60
ATOM     60  O   UNL     1     -15.093   4.071  18.740  0.00  0.00    +0.000 OA
BRANCH  60  61
ATOM     61  C   UNL     1     -14.122   4.245  17.738  0.00  0.00    +0.000 C 
BRANCH  61  62
ATOM     62  C   UNL     1     -12.845   3.534  18.204  0.00  0.00    +0.000 C 
BRANCH  62  63
ATOM     63  O   UNL     1     -11.891   3.554  17.126  0.00  0.00    +0.000 OA
BRANCH  63  64
ATOM     64  C   UNL     1     -12.469   4.084  15.927  0.00  0.00    +0.000 C 
BRANCH  64  65
ATOM     65  C   UNL     1     -11.560   3.819  14.741  0.00  0.00    +0.000 C 
BRANCH  65  66
ATOM     66  O   UNL     1     -10.242   3.568  15.244  0.00  0.00    +0.000 OA
BRANCH  66  67
ATOM     67  C   UNL     1      -9.270   3.438  14.180  0.00  0.00    +0.000 C 
BRANCH  67  68
ATOM     68  C   UNL     1      -9.541   4.595  13.175  0.00  0.00    +0.000 C 
BRANCH  68  69
ATOM     69  O   UNL     1      -9.854   4.054  11.896  0.00  0.00    +0.000 OA
BRANCH  69  70
ATOM     70  C   UNL     1      -8.789   4.207  10.953  0.00  0.00    +0.000 C 
BRANCH  70  71
ATOM     71  C   UNL     1      -9.248   5.009   9.778  0.00  0.00    +0.000 C 
BRANCH  71  72
ATOM     72  O   UNL     1     -10.629   4.843   9.608  0.00  0.00    +0.000 OA
BRANCH  72  74
ATOM     73  O   UNL     1     -10.285   5.522   7.528  0.00  0.00    +0.000 OA
ATOM     74  C   UNL     1     -11.049   5.308   8.391  0.00  0.00    +0.000 C 
BRANCH  74  75
ATOM     75  C   UNL     1     -12.511   5.568   8.223  0.00  0.00    +0.000 C 
BRANCH  75  76
ATOM     76  C   UNL     1     -13.058   4.922   6.914  0.00  0.00    +0.000 C 
BRANCH  76  77
ATOM     77  C   UNL     1     -13.352   3.481   7.242  0.00  0.00    +0.000 C 
BRANCH  77  78
ATOM     78  C   UNL     1     -14.640   3.069   6.589  0.00  0.00    +0.000 C 
BRANCH  78  79
ATOM     79  C   UNL     1     -15.558   2.467   7.610  0.00  0.00    +0.000 C 
BRANCH  79  80
ATOM     80  C   UNL     1     -14.719   1.928   8.756  0.00  0.00    +0.000 C 
BRANCH  80  81
ATOM     81  C   UNL     1     -15.168   0.523   9.027  0.00  0.00    +0.000 C 
BRANCH  81  82
ATOM     82  C   UNL     1     -16.606   0.494   9.462  0.00  0.00    +0.000 C 
BRANCH  82  83
ATOM     83  C   UNL     1     -16.726  -0.180  10.791  0.00  0.00    +0.000 C 
BRANCH  83  84
ATOM     84  C   UNL     1     -17.445   0.777  11.733  0.00  0.00    +0.000 C 
BRANCH  84  85
ATOM     85  C   UNL     1     -16.454   1.753  12.273  0.00  0.00    +0.000 C 
BRANCH  85  86
ATOM     86  C   UNL     1     -15.277   0.963  12.857  0.00  0.00    +0.000 C 
BRANCH  86  87
ATOM     87  C   UNL     1     -13.987   1.715  12.579  0.00  0.00    +0.000 C 
BRANCH  87  88
ATOM     88  C   UNL     1     -12.844   0.787  12.939  0.00  0.00    +0.000 C 
BRANCH  88  89
ATOM     89  C   UNL     1     -13.310  -0.116  14.068  0.00  0.00    +0.000 C 
BRANCH  89  90
ATOM     90  C   UNL     1     -12.664   0.297  15.357  0.00  0.00    +0.000 C 
ATOM     91  C   UNL     1     -13.479  -0.209  16.534  0.00  0.00    +0.000 C 
ENDBRANCH  89  90
ENDBRANCH  88  89
ENDBRANCH  87  88
ENDBRANCH  86  87
ENDBRANCH  85  86
ENDBRANCH  84  85
ENDBRANCH  83  84
ENDBRANCH  82  83
ENDBRANCH  81  82
ENDBRANCH  80  81
ENDBRANCH  79  80
ENDBRANCH  78  79
ENDBRANCH  77  78
ENDBRANCH  76  77
ENDBRANCH  75  76
ENDBRANCH  74  75
ENDBRANCH  72  74
ENDBRANCH  71  72
ENDBRANCH  70  71
ENDBRANCH  69  70
ENDBRANCH  68  69
ENDBRANCH  67  68
ENDBRANCH  66  67
ENDBRANCH  65  66
ENDBRANCH  64  65
ENDBRANCH  63  64
ENDBRANCH  62  63
ENDBRANCH  61  62
ENDBRANCH  60  61
ENDBRANCH  59  60
ENDBRANCH  58  59
ENDBRANCH  57  58
ENDBRANCH  56  57
ENDBRANCH   1  56
TORSDOF 81
ENDMDL
MODEL 3
REMARK VINA RESULT:      -6.4      2.256      3.053
REMARK  Name = human_CD1d_tween80_pred.rank_0
REMARK  81 active torsions:
REMARK  status: ('A' for Active; 'I' for Inactive)
REMARK    1  A    between atoms: C_1  and  C_3
REMARK    2  A    between atoms: C_3  and  O_4
REMARK    3  A    between atoms: O_4  and  C_5
REMARK    4  A    between atoms: C_5  and  C_7
REMARK    5  A    between atoms: O_6  and  C_7
REMARK    6  A    between atoms: O_6  and  C_9
REMARK    7  A    between atoms: O_8  and  C_11
REMARK    8  A    between atoms: O_8  and  C_13
REMARK    9  A    between atoms: C_9  and  C_11
REMARK   10  A    between atoms: O_10  and  C_15
REMARK   11  A    between atoms: O_10  and  C_17
REMARK   12  A    between atoms: O_12  and  C_19
REMARK   13  A    between atoms: O_12  and  C_21
REMARK   14  A    between atoms: C_13  and  C_15
REMARK   15  A    between atoms: O_14  and  C_23
REMARK   16  A    between atoms: O_14  and  C_25
REMARK   17  A    between atoms: O_16  and  C_27
REMARK   18  A    between atoms: O_16  and  C_29
REMARK   19  A    between atoms: C_17  and  C_19
REMARK   20  A    between atoms: O_18  and  C_31
REMARK   21  A    between atoms: O_18  and  C_33
REMARK   22  A    between atoms: O_20  and  C_35
REMARK   23  A    between atoms: O_20  and  C_37
REMARK   24  A    between atoms: C_21  and  C_23
REMARK   25  A    between atoms: C_21  and  C_67
REMARK   26  A    between atoms: O_22  and  C_39
REMARK   27  A    between atoms: O_22  and  C_41
REMARK   28  A    between atoms: O_24  and  C_43
REMARK   29  A    between atoms: O_24  and  C_45
REMARK   30  A    between atoms: C_25  and  C_27
REMARK   31  A    between atoms: O_28  and  C_69
REMARK   32  A    between atoms: O_28  and  C_70
REMARK   33  A    between atoms: C_29  and  C_31
REMARK   34  A    between atoms: O_30  and  C_71
REMARK   35  A    between atoms: O_30  and  C_72
REMARK   36  A    between atoms: O_32  and  C_73
REMARK   37  A    between atoms: O_32  and  C_74
REMARK   38  A    between atoms: C_33  and  C_35
REMARK   39  A    between atoms: O_34  and  C_75
REMARK   40  A    between atoms: O_34  and  C_76
REMARK   41  A    between atoms: O_36  and  C_77
REMARK   42  A    between atoms: O_36  and  C_78
REMARK   43  A    between atoms: C_37  and  C_39
REMARK   44  A    between atoms: O_40  and  C_80
REMARK   45  A    between atoms: O_40  and  C_81
REMARK   46  A    between atoms: C_41  and  C_43
REMARK   47  A    between atoms: O_42  and  C_82
REMARK   48  A    between atoms: O_42  and  C_83
REMARK   49  A    between atoms: O_44  and  C_84
REMARK   50  A    between atoms: O_44  and  C_85
REMARK   51  A    between atoms: C_45  and  C_47
REMARK   52  A    between atoms: O_46  and  C_86
REMARK   53  A    between atoms: O_46  and  C_87
REMARK   54  A    between atoms: C_47  and  C_49
REMARK   55  A    between atoms: O_48  and  C_88
REMARK   56  A    between atoms: O_48  and  C_89
REMARK   57  A    between atoms: C_49  and  C_51
REMARK   58  A    between atoms: C_51  and  C_53
REMARK   59  A    between atoms: C_53  and  C_54
REMARK   60  A    between atoms: C_54  and  C_55
REMARK   61  A    between atoms: C_55  and  C_56
REMARK   62  A    between atoms: C_56  and  C_57
REMARK   63  A    between atoms: C_57  and  C_58
REMARK   64  A    between atoms: C_58  and  C_59
REMARK   65  A    between atoms: C_59  and  C_60
REMARK   66  A    between atoms: C_60  and  C_61
REMARK   67  A    between atoms: C_61  and  C_62
REMARK   68  A    between atoms: C_62  and  C_63
REMARK   69  A    between atoms: C_63  and  C_64
REMARK   70  A    between atoms: C_64  and  C_65
REMARK   71  A    between atoms: C_67  and  C_68
REMARK   72  A    between atoms: C_70  and  C_71
REMARK   73  A    between atoms: C_72  and  C_73
REMARK   74  A    between atoms: C_74  and  C_75
REMARK   75  A    between atoms: C_76  and  C_77
REMARK   76  A    between atoms: C_78  and  C_79
REMARK   77  A    between atoms: C_81  and  C_82
REMARK   78  A    between atoms: C_83  and  C_84
REMARK   79  A    between atoms: C_85  and  C_86
REMARK   80  A    between atoms: C_87  and  C_88
REMARK   81  A    between atoms: C_89  and  C_90
REMARK                            x       y       z     vdW  Elec       q    Type
REMARK                         _______ _______ _______ _____ _____    ______ ____
ROOT
ATOM      1  C   UNL     1     -15.623   7.834  19.888  0.00  0.00    +0.000 C 
ENDROOT
BRANCH   1   2
ATOM      2  C   UNL     1     -15.034   9.276  20.493  0.00  0.00    +0.000 C 
BRANCH   2   4
ATOM      3  O   UNL     1     -15.688  10.663  22.357  0.00  0.00    +0.000 OA
ATOM      4  C   UNL     1     -15.283   9.400  21.961  0.00  0.00    +0.000 C 
ATOM      5  C   UNL     1     -13.983   9.337  22.807  0.00  0.00    +0.000 C 
ATOM      6  C   UNL     1     -14.492   9.984  24.128  0.00  0.00    +0.000 C 
ATOM      7  C   UNL     1     -15.529  10.932  23.696  0.00  0.00    +0.000 C 
BRANCH   6   8
ATOM      8  O   UNL     1     -13.422  10.739  24.675  0.00  0.00    +0.000 OA
BRANCH   8   9
ATOM      9  C   UNL     1     -13.776  12.077  25.095  0.00  0.00    +0.000 C 
BRANCH   9  10
ATOM     10  C   UNL     1     -12.605  12.994  24.854  0.00  0.00    +0.000 C 
BRANCH  10  11
ATOM     11  O   UNL     1     -12.560  13.977  25.872  0.00  0.00    +0.000 OA
BRANCH  11  12
ATOM     12  C   UNL     1     -12.616  15.283  25.330  0.00  0.00    +0.000 C 
BRANCH  12  13
ATOM     13  C   UNL     1     -12.964  16.328  26.364  0.00  0.00    +0.000 C 
BRANCH  13  14
ATOM     14  O   UNL     1     -12.112  17.452  26.123  0.00  0.00    +0.000 OA
BRANCH  14  15
ATOM     15  C   UNL     1     -10.785  17.203  26.448  0.00  0.00    +0.000 C 
BRANCH  15  16
ATOM     16  C   UNL     1     -10.606  17.246  27.990  0.00  0.00    +0.000 C 
BRANCH  16  17
ATOM     17  O   UNL     1      -9.447  16.554  28.280  0.00  0.00    +0.000 OA
BRANCH  17  18
ATOM     18  C   UNL     1      -9.294  15.362  27.489  0.00  0.00    +0.000 C 
BRANCH  18  19
ATOM     19  C   UNL     1      -7.817  14.976  27.549  0.00  0.00    +0.000 C 
BRANCH  19  20
ATOM     20  O   UNL     1      -7.667  13.609  27.532  0.00  0.00    +0.000 OA
BRANCH  20  21
ATOM     21  C   UNL     1      -8.312  13.005  28.621  0.00  0.00    +0.000 C 
BRANCH  21  23
ATOM     22  O   UNL     1      -8.162  10.638  28.409  0.00  0.00    +0.000 OA
ATOM     23  C   UNL     1      -7.567  11.779  29.067  0.00  0.00    +0.000 C 
ENDBRANCH  21  23
ENDBRANCH  20  21
ENDBRANCH  19  20
ENDBRANCH  18  19
ENDBRANCH  17  18
ENDBRANCH  16  17
ENDBRANCH  15  16
ENDBRANCH  14  15
ENDBRANCH  13  14
ENDBRANCH  12  13
ENDBRANCH  11  12
ENDBRANCH  10  11
ENDBRANCH   9  10
ENDBRANCH   8   9
ENDBRANCH   6   8
BRANCH   5  24
ATOM     24  O   UNL     1     -13.595   7.999  23.017  0.00  0.00    +0.000 OA
BRANCH  24  25
ATOM     25  C   UNL     1     -12.194   7.827  23.131  0.00  0.00    +0.000 C 
BRANCH  25  26
ATOM     26  C   UNL     1     -11.508   7.811  21.781  0.00  0.00    +0.000 C 
BRANCH  26  27
ATOM     27  O   UNL     1     -11.770   6.567  21.166  0.00  0.00    +0.000 OA
BRANCH  27  28
ATOM     28  C   UNL     1     -10.983   5.510  21.692  0.00  0.00    +0.000 C 
BRANCH  28  29
ATOM     29  C   UNL     1     -11.111   4.236  20.885  0.00  0.00    +0.000 C 
BRANCH  29  30
ATOM     30  O   UNL     1      -9.863   3.581  20.808  0.00  0.00    +0.000 OA
BRANCH  30  31
ATOM     31  C   UNL     1      -8.855   4.339  20.127  0.00  0.00    +0.000 C 
BRANCH  31  32
ATOM     32  C   UNL     1      -7.469   3.872  20.563  0.00  0.00    +0.000 C 
BRANCH  32  33
ATOM     33  O   UNL     1      -7.524   2.677  21.317  0.00  0.00    +0.000 OA
BRANCH  33  34
ATOM     34  C   UNL     1      -7.042   2.828  22.633  0.00  0.00    +0.000 C 
BRANCH  34  35
ATOM     35  C   UNL     1      -5.499   2.876  22.670  0.00  0.00    +0.000 C 
BRANCH  35  36
ATOM     36  O   UNL     1      -5.098   3.538  23.839  0.00  0.00    +0.000 OA
BRANCH  36  37
ATOM     37  C   UNL     1      -4.133   4.524  23.517  0.00  0.00    +0.000 C 
BRANCH  37  39
ATOM     38  O   UNL     1      -3.943   6.494  22.165  0.00  0.00    +0.000 OA
ATOM     39  C   UNL     1      -4.442   5.157  22.192  0.00  0.00    +0.000 C 
ENDBRANCH  37  39
ENDBRANCH  36  37
ENDBRANCH  35  36
ENDBRANCH  34  35
ENDBRANCH  33  34
ENDBRANCH  32  33
ENDBRANCH  31  32
ENDBRANCH  30  31
ENDBRANCH  29  30
ENDBRANCH  28  29
ENDBRANCH  27  28
ENDBRANCH  26  27
ENDBRANCH  25  26
ENDBRANCH  24  25
ENDBRANCH   5  24
ENDBRANCH   2   4
ENDBRANCH   1   2
BRANCH   1  40
ATOM     40  O   UNL     1     -16.396   8.141  18.720  0.00  0.00    +0.000 OA
BRANCH  40  41
ATOM     41  C   UNL     1     -17.781   8.145  19.014  0.00  0.00    +0.000 C 
BRANCH  41  42
ATOM     42  C   UNL     1     -18.433   9.465  18.595  0.00  0.00    +0.000 C 
BRANCH  42  43
ATOM     43  O   UNL     1     -19.766   9.449  18.959  0.00  0.00    +0.000 OA
BRANCH  43  44
ATOM     44  C   UNL     1     -20.585  10.271  18.128  0.00  0.00    +0.000 C 
BRANCH  44  45
ATOM     45  C   UNL     1     -21.987   9.689  18.074  0.00  0.00    +0.000 C 
BRANCH  45  46
ATOM     46  O   UNL     1     -21.907   8.310  17.892  0.00  0.00    +0.000 OA
BRANCH  46  47
ATOM     47  C   UNL     1     -22.964   7.651  18.516  0.00  0.00    +0.000 C 
BRANCH  47  48
ATOM     48  C   UNL     1     -23.961   7.185  17.453  0.00  0.00    +0.000 C 
BRANCH  48  49
ATOM     49  O   UNL     1     -23.414   6.083  16.772  0.00  0.00    +0.000 OA
BRANCH  49  50
ATOM     50  C   UNL     1     -24.317   5.018  16.586  0.00  0.00    +0.000 C 
BRANCH  50  51
ATOM     51  C   UNL     1     -23.753   3.793  17.281  0.00  0.00    +0.000 C 
BRANCH  51  52
ATOM     52  O   UNL     1     -24.183   2.648  16.520  0.00  0.00    +0.000 OA
BRANCH  52  53
ATOM     53  C   UNL     1     -23.303   2.352  15.430  0.00  0.00    +0.000 C 
BRANCH  53  54
ATOM     54  C   UNL     1     -24.053   2.044  14.184  0.00  0.00    +0.000 C 
ATOM     55  O   UNL     1     -23.733   0.725  13.777  0.00  0.00    +0.000 OA
ENDBRANCH  53  54
ENDBRANCH  52  53
ENDBRANCH  51  52
ENDBRANCH  50  51
ENDBRANCH  49  50
ENDBRANCH  48  49
ENDBRANCH  47  48
ENDBRANCH  46  47
ENDBRANCH  45  46
ENDBRANCH  44  45
ENDBRANCH  43  44
ENDBRANCH  42  43
ENDBRANCH  41  42
ENDBRANCH  40  41
ENDBRANCH   1  40
BRANCH   1  56
ATOM     56  C   UNL     1     -16.457   7.213  20.966  0.00  0.00    +0.000 C 
BRANCH  56  57
ATOM     57  O   UNL     1     -15.903   5.993  21.233  0.00  0.00    +0.000 OA
BRANCH  57  58
ATOM     58  C   UNL     1     -14.860   5.724  20.251  0.00  0.00    +0.000 C 
BRANCH  58  59
ATOM     59  C   UNL     1     -14.982   4.301  19.745  0.00  0.00    +0.000 C 
BRANCH  59  60
ATOM     60  O   UNL     1     -15.437   4.327  18.414  0.00  0.00    +0.000 OA
BRANCH  60  61
ATOM     61  C   UNL     1     -14.595   5.097  17.592  0.00  0.00    +0.000 C 
BRANCH  61  62
ATOM     62  C   UNL     1     -13.436   4.197  17.144  0.00  0.00    +0.000 C 
BRANCH  62  63
ATOM     63  O   UNL     1     -12.982   4.644  15.853  0.00  0.00    +0.000 OA
BRANCH  63  64
ATOM     64  C   UNL     1     -11.816   3.927  15.432  0.00  0.00    +0.000 C 
BRANCH  64  65
ATOM     65  C   UNL     1     -12.203   2.790  14.504  0.00  0.00    +0.000 C 
BRANCH  65  66
ATOM     66  O   UNL     1     -11.013   2.056  14.189  0.00  0.00    +0.000 OA
BRANCH  66  67
ATOM     67  C   UNL     1      -9.814   2.798  14.513  0.00  0.00    +0.000 C 
BRANCH  67  68
ATOM     68  C   UNL     1      -8.941   2.833  13.225  0.00  0.00    +0.000 C 
BRANCH  68  69
ATOM     69  O   UNL     1      -9.665   3.464  12.173  0.00  0.00    +0.000 OA
BRANCH  69  70
ATOM     70  C   UNL     1      -9.431   4.874  12.107  0.00  0.00    +0.000 C 
BRANCH  70  71
ATOM     71  C   UNL     1      -8.811   5.235  10.795  0.00  0.00    +0.000 C 
BRANCH  71  72
ATOM     72  O   UNL     1      -9.083   4.231   9.856  0.00  0.00    +0.000 OA
BRANCH  72  74
ATOM     73  O   UNL     1      -9.400   5.338   7.964  0.00  0.00    +0.000 OA
ATOM     74  C   UNL     1      -9.861   4.696   8.830  0.00  0.00    +0.000 C 
BRANCH  74  75
ATOM     75  C   UNL     1     -11.322   4.386   8.882  0.00  0.00    +0.000 C 
BRANCH  75  76
ATOM     76  C   UNL     1     -12.182   5.624   8.486  0.00  0.00    +0.000 C 
BRANCH  76  77
ATOM     77  C   UNL     1     -12.633   5.393   7.067  0.00  0.00    +0.000 C 
BRANCH  77  78
ATOM     78  C   UNL     1     -13.947   4.669   7.069  0.00  0.00    +0.000 C 
BRANCH  78  79
ATOM     79  C   UNL     1     -13.841   3.418   6.250  0.00  0.00    +0.000 C 
BRANCH  79  80
ATOM     80  C   UNL     1     -14.048   2.222   7.165  0.00  0.00    +0.000 C 
BRANCH  80  81
ATOM     81  C   UNL     1     -15.427   2.327   7.746  0.00  0.00    +0.000 C 
BRANCH  81  82
ATOM     82  C   UNL     1     -15.499   1.639   9.080  0.00  0.00    +0.000 C 
BRANCH  82  83
ATOM     83  C   UNL     1     -15.025   0.226   8.955  0.00  0.00    +0.000 C 
BRANCH  83  84
ATOM     84  C   UNL     1     -16.026  -0.664   9.680  0.00  0.00    +0.000 C 
BRANCH  84  85
ATOM     85  C   UNL     1     -16.998   0.202  10.410  0.00  0.00    +0.000 C 
BRANCH  85  86
ATOM     86  C   UNL     1     -16.885  -0.113  11.906  0.00  0.00    +0.000 C 
BRANCH  86  87
ATOM     87  C   UNL     1     -16.145   1.019  12.598  0.00  0.00    +0.000 C 
BRANCH  87  88
ATOM     88  C   UNL     1     -14.779   0.488  12.984  0.00  0.00    +0.000 C 
BRANCH  88  89
ATOM     89  C   UNL     1     -14.910  -1.005  13.237  0.00  0.00    +0.000 C 
BRANCH  89  90
ATOM     90  C   UNL     1     -13.557  -1.651  13.215  0.00  0.00    +0.000 C 
ATOM     91  C   UNL     1     -12.748  -1.130  12.041  0.00  0.00    +0.000 C 
ENDBRANCH  89  90
ENDBRANCH  88  89
ENDBRANCH  87  88
ENDBRANCH  86  87
ENDBRANCH  85  86
ENDBRANCH  84  85
ENDBRANCH  83  84
ENDBRANCH  82  83
ENDBRANCH  81  82
ENDBRANCH  80  81
ENDBRANCH  79  80
ENDBRANCH  78  79
ENDBRANCH  77  78
ENDBRANCH  76  77
ENDBRANCH  75  76
ENDBRANCH  74  75
ENDBRANCH  72  74
ENDBRANCH  71  72
ENDBRANCH  70  71
ENDBRANCH  69  70
ENDBRANCH  68  69
ENDBRANCH  67  68
ENDBRANCH  66  67
ENDBRANCH  65  66
ENDBRANCH  64  65
ENDBRANCH  63  64
ENDBRANCH  62  63
ENDBRANCH  61  62
ENDBRANCH  60  61
ENDBRANCH  59  60
ENDBRANCH  58  59
ENDBRANCH  57  58
ENDBRANCH  56  57
ENDBRANCH   1  56
TORSDOF 81
ENDMDL
MODEL 4
REMARK VINA RESULT:      -6.4      2.692      3.457
REMARK  Name = human_CD1d_tween80_pred.rank_0
REMARK  81 active torsions:
REMARK  status: ('A' for Active; 'I' for Inactive)
REMARK    1  A    between atoms: C_1  and  C_3
REMARK    2  A    between atoms: C_3  and  O_4
REMARK    3  A    between atoms: O_4  and  C_5
REMARK    4  A    between atoms: C_5  and  C_7
REMARK    5  A    between atoms: O_6  and  C_7
REMARK    6  A    between atoms: O_6  and  C_9
REMARK    7  A    between atoms: O_8  and  C_11
REMARK    8  A    between atoms: O_8  and  C_13
REMARK    9  A    between atoms: C_9  and  C_11
REMARK   10  A    between atoms: O_10  and  C_15
REMARK   11  A    between atoms: O_10  and  C_17
REMARK   12  A    between atoms: O_12  and  C_19
REMARK   13  A    between atoms: O_12  and  C_21
REMARK   14  A    between atoms: C_13  and  C_15
REMARK   15  A    between atoms: O_14  and  C_23
REMARK   16  A    between atoms: O_14  and  C_25
REMARK   17  A    between atoms: O_16  and  C_27
REMARK   18  A    between atoms: O_16  and  C_29
REMARK   19  A    between atoms: C_17  and  C_19
REMARK   20  A    between atoms: O_18  and  C_31
REMARK   21  A    between atoms: O_18  and  C_33
REMARK   22  A    between atoms: O_20  and  C_35
REMARK   23  A    between atoms: O_20  and  C_37
REMARK   24  A    between atoms: C_21  and  C_23
REMARK   25  A    between atoms: C_21  and  C_67
REMARK   26  A    between atoms: O_22  and  C_39
REMARK   27  A    between atoms: O_22  and  C_41
REMARK   28  A    between atoms: O_24  and  C_43
REMARK   29  A    between atoms: O_24  and  C_45
REMARK   30  A    between atoms: C_25  and  C_27
REMARK   31  A    between atoms: O_28  and  C_69
REMARK   32  A    between atoms: O_28  and  C_70
REMARK   33  A    between atoms: C_29  and  C_31
REMARK   34  A    between atoms: O_30  and  C_71
REMARK   35  A    between atoms: O_30  and  C_72
REMARK   36  A    between atoms: O_32  and  C_73
REMARK   37  A    between atoms: O_32  and  C_74
REMARK   38  A    between atoms: C_33  and  C_35
REMARK   39  A    between atoms: O_34  and  C_75
REMARK   40  A    between atoms: O_34  and  C_76
REMARK   41  A    between atoms: O_36  and  C_77
REMARK   42  A    between atoms: O_36  and  C_78
REMARK   43  A    between atoms: C_37  and  C_39
REMARK   44  A    between atoms: O_40  and  C_80
REMARK   45  A    between atoms: O_40  and  C_81
REMARK   46  A    between atoms: C_41  and  C_43
REMARK   47  A    between atoms: O_42  and  C_82
REMARK   48  A    between atoms: O_42  and  C_83
REMARK   49  A    between atoms: O_44  and  C_84
REMARK   50  A    between atoms: O_44  and  C_85
REMARK   51  A    between atoms: C_45  and  C_47
REMARK   52  A    between atoms: O_46  and  C_86
REMARK   53  A    between atoms: O_46  and  C_87
REMARK   54  A    between atoms: C_47  and  C_49
REMARK   55  A    between atoms: O_48  and  C_88
REMARK   56  A    between atoms: O_48  and  C_89
REMARK   57  A    between atoms: C_49  and  C_51
REMARK   58  A    between atoms: C_51  and  C_53
REMARK   59  A    between atoms: C_53  and  C_54
REMARK   60  A    between atoms: C_54  and  C_55
REMARK   61  A    between atoms: C_55  and  C_56
REMARK   62  A    between atoms: C_56  and  C_57
REMARK   63  A    between atoms: C_57  and  C_58
REMARK   64  A    between atoms: C_58  and  C_59
REMARK   65  A    between atoms: C_59  and  C_60
REMARK   66  A    between atoms: C_60  and  C_61
REMARK   67  A    between atoms: C_61  and  C_62
REMARK   68  A    between atoms: C_62  and  C_63
REMARK   69  A    between atoms: C_63  and  C_64
REMARK   70  A    between atoms: C_64  and  C_65
REMARK   71  A    between atoms: C_67  and  C_68
REMARK   72  A    between atoms: C_70  and  C_71
REMARK   73  A    between atoms: C_72  and  C_73
REMARK   74  A    between atoms: C_74  and  C_75
REMARK   75  A    between atoms: C_76  and  C_77
REMARK   76  A    between atoms: C_78  and  C_79
REMARK   77  A    between atoms: C_81  and  C_82
REMARK   78  A    between atoms: C_83  and  C_84
REMARK   79  A    between atoms: C_85  and  C_86
REMARK   80  A    between atoms: C_87  and  C_88
REMARK   81  A    between atoms: C_89  and  C_90
REMARK                            x       y       z     vdW  Elec       q    Type
REMARK                         _______ _______ _______ _____ _____    ______ ____
ROOT
ATOM      1  C   UNL     1     -16.205   8.417  19.285  0.00  0.00    +0.000 C 
ENDROOT
BRANCH   1   2
ATOM      2  C   UNL     1     -15.314   9.577  20.093  0.00  0.00    +0.000 C 
BRANCH   2   4
ATOM      3  O   UNL     1     -15.788  10.719  22.166  0.00  0.00    +0.000 OA
ATOM      4  C   UNL     1     -15.519   9.499  21.571  0.00  0.00    +0.000 C 
ATOM      5  C   UNL     1     -14.214   9.184  22.351  0.00  0.00    +0.000 C 
ATOM      6  C   UNL     1     -14.629   9.667  23.771  0.00  0.00    +0.000 C 
ATOM      7  C   UNL     1     -15.575  10.764  23.524  0.00  0.00    +0.000 C 
BRANCH   6   8
ATOM      8  O   UNL     1     -13.477  10.224  24.387  0.00  0.00    +0.000 OA
BRANCH   8   9
ATOM      9  C   UNL     1     -13.734  11.374  25.226  0.00  0.00    +0.000 C 
BRANCH   9  10
ATOM     10  C   UNL     1     -12.674  12.414  24.974  0.00  0.00    +0.000 C 
BRANCH  10  11
ATOM     11  O   UNL     1     -13.262  13.548  24.365  0.00  0.00    +0.000 OA
BRANCH  11  12
ATOM     12  C   UNL     1     -12.320  14.591  24.199  0.00  0.00    +0.000 C 
BRANCH  12  13
ATOM     13  C   UNL     1     -11.599  14.934  25.481  0.00  0.00    +0.000 C 
BRANCH  13  14
ATOM     14  O   UNL     1     -11.325  16.339  25.441  0.00  0.00    +0.000 OA
BRANCH  14  15
ATOM     15  C   UNL     1     -10.413  16.738  26.411  0.00  0.00    +0.000 C 
BRANCH  15  16
ATOM     16  C   UNL     1      -9.711  15.492  27.015  0.00  0.00    +0.000 C 
BRANCH  16  17
ATOM     17  O   UNL     1      -8.358  15.646  26.793  0.00  0.00    +0.000 OA
BRANCH  17  18
ATOM     18  C   UNL     1      -7.913  17.004  26.960  0.00  0.00    +0.000 C 
BRANCH  18  19
ATOM     19  C   UNL     1      -7.068  17.041  28.233  0.00  0.00    +0.000 C 
BRANCH  19  20
ATOM     20  O   UNL     1      -5.875  17.687  28.008  0.00  0.00    +0.000 OA
BRANCH  20  21
ATOM     21  C   UNL     1      -5.078  16.996  27.084  0.00  0.00    +0.000 C 
BRANCH  21  23
ATOM     22  O   UNL     1      -4.675  19.211  26.309  0.00  0.00    +0.000 OA
ATOM     23  C   UNL     1      -4.815  17.841  25.870  0.00  0.00    +0.000 C 
ENDBRANCH  21  23
ENDBRANCH  20  21
ENDBRANCH  19  20
ENDBRANCH  18  19
ENDBRANCH  17  18
ENDBRANCH  16  17
ENDBRANCH  15  16
ENDBRANCH  14  15
ENDBRANCH  13  14
ENDBRANCH  12  13
ENDBRANCH  11  12
ENDBRANCH  10  11
ENDBRANCH   9  10
ENDBRANCH   8   9
ENDBRANCH   6   8
BRANCH   5  24
ATOM     24  O   UNL     1     -13.957   7.799  22.344  0.00  0.00    +0.000 OA
BRANCH  24  25
ATOM     25  C   UNL     1     -12.794   7.443  21.618  0.00  0.00    +0.000 C 
BRANCH  25  26
ATOM     26  C   UNL     1     -11.934   8.645  21.290  0.00  0.00    +0.000 C 
BRANCH  26  27
ATOM     27  O   UNL     1     -10.701   8.504  21.963  0.00  0.00    +0.000 OA
BRANCH  27  28
ATOM     28  C   UNL     1     -10.166   7.193  21.874  0.00  0.00    +0.000 C 
BRANCH  28  29
ATOM     29  C   UNL     1      -8.706   7.134  22.269  0.00  0.00    +0.000 C 
BRANCH  29  30
ATOM     30  O   UNL     1      -8.495   6.092  23.199  0.00  0.00    +0.000 OA
BRANCH  30  31
ATOM     31  C   UNL     1      -9.048   4.835  22.791  0.00  0.00    +0.000 C 
BRANCH  31  32
ATOM     32  C   UNL     1      -7.988   3.742  22.896  0.00  0.00    +0.000 C 
BRANCH  32  33
ATOM     33  O   UNL     1      -6.788   4.100  22.242  0.00  0.00    +0.000 OA
BRANCH  33  34
ATOM     34  C   UNL     1      -5.634   3.638  22.906  0.00  0.00    +0.000 C 
BRANCH  34  35
ATOM     35  C   UNL     1      -4.345   4.137  22.217  0.00  0.00    +0.000 C 
BRANCH  35  36
ATOM     36  O   UNL     1      -3.281   4.031  23.123  0.00  0.00    +0.000 OA
BRANCH  36  37
ATOM     37  C   UNL     1      -2.341   5.061  22.872  0.00  0.00    +0.000 C 
BRANCH  37  39
ATOM     38  O   UNL     1      -1.556   4.091  24.919  0.00  0.00    +0.000 OA
ATOM     39  C   UNL     1      -1.341   5.152  23.987  0.00  0.00    +0.000 C 
ENDBRANCH  37  39
ENDBRANCH  36  37
ENDBRANCH  35  36
ENDBRANCH  34  35
ENDBRANCH  33  34
ENDBRANCH  32  33
ENDBRANCH  31  32
ENDBRANCH  30  31
ENDBRANCH  29  30
ENDBRANCH  28  29
ENDBRANCH  27  28
ENDBRANCH  26  27
ENDBRANCH  25  26
ENDBRANCH  24  25
ENDBRANCH   5  24
ENDBRANCH   2   4
ENDBRANCH   1   2
BRANCH   1  40
ATOM     40  O   UNL     1     -17.261   9.093  18.589  0.00  0.00    +0.000 OA
BRANCH  40  41
ATOM     41  C   UNL     1     -18.500   8.916  19.251  0.00  0.00    +0.000 C 
BRANCH  41  42
ATOM     42  C   UNL     1     -19.612   8.559  18.260  0.00  0.00    +0.000 C 
BRANCH  42  43
ATOM     43  O   UNL     1     -20.795   9.140  18.676  0.00  0.00    +0.000 OA
BRANCH  43  44
ATOM     44  C   UNL     1     -21.902   8.825  17.833  0.00  0.00    +0.000 C 
BRANCH  44  45
ATOM     45  C   UNL     1     -22.687   7.677  18.444  0.00  0.00    +0.000 C 
BRANCH  45  46
ATOM     46  O   UNL     1     -22.747   6.623  17.536  0.00  0.00    +0.000 OA
BRANCH  46  47
ATOM     47  C   UNL     1     -23.934   5.905  17.663  0.00  0.00    +0.000 C 
BRANCH  47  48
ATOM     48  C   UNL     1     -24.012   4.863  16.546  0.00  0.00    +0.000 C 
BRANCH  48  49
ATOM     49  O   UNL     1     -23.409   3.674  16.996  0.00  0.00    +0.000 OA
BRANCH  49  50
ATOM     50  C   UNL     1     -23.508   2.602  16.087  0.00  0.00    +0.000 C 
BRANCH  50  51
ATOM     51  C   UNL     1     -22.145   2.389  15.457  0.00  0.00    +0.000 C 
BRANCH  51  52
ATOM     52  O   UNL     1     -22.376   1.927  14.112  0.00  0.00    +0.000 OA
BRANCH  52  53
ATOM     53  C   UNL     1     -23.750   2.026  13.727  0.00  0.00    +0.000 C 
BRANCH  53  54
ATOM     54  C   UNL     1     -24.136   0.948  12.778  0.00  0.00    +0.000 C 
ATOM     55  O   UNL     1     -25.415   1.247  12.248  0.00  0.00    +0.000 OA
ENDBRANCH  53  54
ENDBRANCH  52  53
ENDBRANCH  51  52
ENDBRANCH  50  51
ENDBRANCH  49  50
ENDBRANCH  48  49
ENDBRANCH  47  48
ENDBRANCH  46  47
ENDBRANCH  45  46
ENDBRANCH  44  45
ENDBRANCH  43  44
ENDBRANCH  42  43
ENDBRANCH  41  42
ENDBRANCH  40  41
ENDBRANCH   1  40
BRANCH   1  56
ATOM     56  C   UNL     1     -16.730   7.468  20.318  0.00  0.00    +0.000 C 
BRANCH  56  57
ATOM     57  O   UNL     1     -15.956   6.345  20.243  0.00  0.00    +0.000 OA
BRANCH  57  58
ATOM     58  C   UNL     1     -15.462   6.202  18.880  0.00  0.00    +0.000 C 
BRANCH  58  59
ATOM     59  C   UNL     1     -14.971   4.787  18.654  0.00  0.00    +0.000 C 
BRANCH  59  60
ATOM     60  O   UNL     1     -15.061   4.486  17.283  0.00  0.00    +0.000 OA
BRANCH  60  61
ATOM     61  C   UNL     1     -13.836   4.693  16.624  0.00  0.00    +0.000 C 
BRANCH  61  62
ATOM     62  C   UNL     1     -12.798   3.771  17.279  0.00  0.00    +0.000 C 
BRANCH  62  63
ATOM     63  O   UNL     1     -11.709   3.582  16.356  0.00  0.00    +0.000 OA
BRANCH  63  64
ATOM     64  C   UNL     1     -12.019   4.119  15.065  0.00  0.00    +0.000 C 
BRANCH  64  65
ATOM     65  C   UNL     1     -11.117   3.508  14.009  0.00  0.00    +0.000 C 
BRANCH  65  66
ATOM     66  O   UNL     1      -9.787   3.993  14.232  0.00  0.00    +0.000 OA
BRANCH  66  67
ATOM     67  C   UNL     1      -9.036   4.108  13.001  0.00  0.00    +0.000 C 
BRANCH  67  68
ATOM     68  C   UNL     1      -9.506   5.418  12.304  0.00  0.00    +0.000 C 
BRANCH  68  69
ATOM     69  O   UNL     1     -10.175   5.100  11.088  0.00  0.00    +0.000 OA
BRANCH  69  70
ATOM     70  C   UNL     1      -9.316   4.474  10.131  0.00  0.00    +0.000 C 
BRANCH  70  71
ATOM     71  C   UNL     1      -9.117   5.368   8.949  0.00  0.00    +0.000 C 
BRANCH  71  72
ATOM     72  O   UNL     1      -9.624   4.745   7.800  0.00  0.00    +0.000 OA
BRANCH  72  74
ATOM     73  O   UNL     1     -10.098   5.885   5.961  0.00  0.00    +0.000 OA
ATOM     74  C   UNL     1     -10.393   5.602   7.059  0.00  0.00    +0.000 C 
BRANCH  74  75
ATOM     75  C   UNL     1     -11.598   6.188   7.721  0.00  0.00    +0.000 C 
BRANCH  75  76
ATOM     76  C   UNL     1     -12.636   5.086   8.095  0.00  0.00    +0.000 C 
BRANCH  76  77
ATOM     77  C   UNL     1     -13.813   5.281   7.176  0.00  0.00    +0.000 C 
BRANCH  77  78
ATOM     78  C   UNL     1     -13.931   4.105   6.252  0.00  0.00    +0.000 C 
BRANCH  78  79
ATOM     79  C   UNL     1     -13.126   2.957   6.782  0.00  0.00    +0.000 C 
BRANCH  79  80
ATOM     80  C   UNL     1     -14.060   1.787   7.036  0.00  0.00    +0.000 C 
BRANCH  80  81
ATOM     81  C   UNL     1     -14.460   1.827   8.480  0.00  0.00    +0.000 C 
BRANCH  81  82
ATOM     82  C   UNL     1     -15.890   1.398   8.652  0.00  0.00    +0.000 C 
BRANCH  82  83
ATOM     83  C   UNL     1     -15.947   0.046   9.288  0.00  0.00    +0.000 C 
BRANCH  83  84
ATOM     84  C   UNL     1     -17.065   0.067  10.323  0.00  0.00    +0.000 C 
BRANCH  84  85
ATOM     85  C   UNL     1     -16.491  -0.279  11.657  0.00  0.00    +0.000 C 
BRANCH  85  86
ATOM     86  C   UNL     1     -16.145   1.029  12.379  0.00  0.00    +0.000 C 
BRANCH  86  87
ATOM     87  C   UNL     1     -14.657   1.299  12.231  0.00  0.00    +0.000 C 
BRANCH  87  88
ATOM     88  C   UNL     1     -14.093   1.459  13.628  0.00  0.00    +0.000 C 
BRANCH  88  89
ATOM     89  C   UNL     1     -14.036   0.085  14.273  0.00  0.00    +0.000 C 
BRANCH  89  90
ATOM     90  C   UNL     1     -12.915   0.027  15.267  0.00  0.00    +0.000 C 
ATOM     91  C   UNL     1     -13.423  -0.495  16.598  0.00  0.00    +0.000 C 
ENDBRANCH  89  90
ENDBRANCH  88  89
ENDBRANCH  87  88
ENDBRANCH  86  87
ENDBRANCH  85  86
ENDBRANCH  84  85
ENDBRANCH  83  84
ENDBRANCH  82  83
ENDBRANCH  81  82
ENDBRANCH  80  81
ENDBRANCH  79  80
ENDBRANCH  78  79
ENDBRANCH  77  78
ENDBRANCH  76  77
ENDBRANCH  75  76
ENDBRANCH  74  75
ENDBRANCH  72  74
ENDBRANCH  71  72
ENDBRANCH  70  71
ENDBRANCH  69  70
ENDBRANCH  68  69
ENDBRANCH  67  68
ENDBRANCH  66  67
ENDBRANCH  65  66
ENDBRANCH  64  65
ENDBRANCH  63  64
ENDBRANCH  62  63
ENDBRANCH  61  62
ENDBRANCH  60  61
ENDBRANCH  59  60
ENDBRANCH  58  59
ENDBRANCH  57  58
ENDBRANCH  56  57
ENDBRANCH   1  56
TORSDOF 81
ENDMDL
MODEL 5
REMARK VINA RESULT:      -6.4      3.516      6.692
REMARK  Name = human_CD1d_tween80_pred.rank_0
REMARK  81 active torsions:
REMARK  status: ('A' for Active; 'I' for Inactive)
REMARK    1  A    between atoms: C_1  and  C_3
REMARK    2  A    between atoms: C_3  and  O_4
REMARK    3  A    between atoms: O_4  and  C_5
REMARK    4  A    between atoms: C_5  and  C_7
REMARK    5  A    between atoms: O_6  and  C_7
REMARK    6  A    between atoms: O_6  and  C_9
REMARK    7  A    between atoms: O_8  and  C_11
REMARK    8  A    between atoms: O_8  and  C_13
REMARK    9  A    between atoms: C_9  and  C_11
REMARK   10  A    between atoms: O_10  and  C_15
REMARK   11  A    between atoms: O_10  and  C_17
REMARK   12  A    between atoms: O_12  and  C_19
REMARK   13  A    between atoms: O_12  and  C_21
REMARK   14  A    between atoms: C_13  and  C_15
REMARK   15  A    between atoms: O_14  and  C_23
REMARK   16  A    between atoms: O_14  and  C_25
REMARK   17  A    between atoms: O_16  and  C_27
REMARK   18  A    between atoms: O_16  and  C_29
REMARK   19  A    between atoms: C_17  and  C_19
REMARK   20  A    between atoms: O_18  and  C_31
REMARK   21  A    between atoms: O_18  and  C_33
REMARK   22  A    between atoms: O_20  and  C_35
REMARK   23  A    between atoms: O_20  and  C_37
REMARK   24  A    between atoms: C_21  and  C_23
REMARK   25  A    between atoms: C_21  and  C_67
REMARK   26  A    between atoms: O_22  and  C_39
REMARK   27  A    between atoms: O_22  and  C_41
REMARK   28  A    between atoms: O_24  and  C_43
REMARK   29  A    between atoms: O_24  and  C_45
REMARK   30  A    between atoms: C_25  and  C_27
REMARK   31  A    between atoms: O_28  and  C_69
REMARK   32  A    between atoms: O_28  and  C_70
REMARK   33  A    between atoms: C_29  and  C_31
REMARK   34  A    between atoms: O_30  and  C_71
REMARK   35  A    between atoms: O_30  and  C_72
REMARK   36  A    between atoms: O_32  and  C_73
REMARK   37  A    between atoms: O_32  and  C_74
REMARK   38  A    between atoms: C_33  and  C_35
REMARK   39  A    between atoms: O_34  and  C_75
REMARK   40  A    between atoms: O_34  and  C_76
REMARK   41  A    between atoms: O_36  and  C_77
REMARK   42  A    between atoms: O_36  and  C_78
REMARK   43  A    between atoms: C_37  and  C_39
REMARK   44  A    between atoms: O_40  and  C_80
REMARK   45  A    between atoms: O_40  and  C_81
REMARK   46  A    between atoms: C_41  and  C_43
REMARK   47  A    between atoms: O_42  and  C_82
REMARK   48  A    between atoms: O_42  and  C_83
REMARK   49  A    between atoms: O_44  and  C_84
REMARK   50  A    between atoms: O_44  and  C_85
REMARK   51  A    between atoms: C_45  and  C_47
REMARK   52  A    between atoms: O_46  and  C_86
REMARK   53  A    between atoms: O_46  and  C_87
REMARK   54  A    between atoms: C_47  and  C_49
REMARK   55  A    between atoms: O_48  and  C_88
REMARK   56  A    between atoms: O_48  and  C_89
REMARK   57  A    between atoms: C_49  and  C_51
REMARK   58  A    between atoms: C_51  and  C_53
REMARK   59  A    between atoms: C_53  and  C_54
REMARK   60  A    between atoms: C_54  and  C_55
REMARK   61  A    between atoms: C_55  and  C_56
REMARK   62  A    between atoms: C_56  and  C_57
REMARK   63  A    between atoms: C_57  and  C_58
REMARK   64  A    between atoms: C_58  and  C_59
REMARK   65  A    between atoms: C_59  and  C_60
REMARK   66  A    between atoms: C_60  and  C_61
REMARK   67  A    between atoms: C_61  and  C_62
REMARK   68  A    between atoms: C_62  and  C_63
REMARK   69  A    between atoms: C_63  and  C_64
REMARK   70  A    between atoms: C_64  and  C_65
REMARK   71  A    between atoms: C_67  and  C_68
REMARK   72  A    between atoms: C_70  and  C_71
REMARK   73  A    between atoms: C_72  and  C_73
REMARK   74  A    between atoms: C_74  and  C_75
REMARK   75  A    between atoms: C_76  and  C_77
REMARK   76  A    between atoms: C_78  and  C_79
REMARK   77  A    between atoms: C_81  and  C_82
REMARK   78  A    between atoms: C_83  and  C_84
REMARK   79  A    between atoms: C_85  and  C_86
REMARK   80  A    between atoms: C_87  and  C_88
REMARK   81  A    between atoms: C_89  and  C_90
REMARK                            x       y       z     vdW  Elec       q    Type
REMARK                         _______ _______ _______ _____ _____    ______ ____
ROOT
ATOM      1  C   UNL     1     -15.814   7.992  19.526  0.00  0.00    +0.000 C 
ENDROOT
BRANCH   1   2
ATOM      2  C   UNL     1     -14.880   9.167  20.261  0.00  0.00    +0.000 C 
BRANCH   2   4
ATOM      3  O   UNL     1     -15.502  10.424  22.225  0.00  0.00    +0.000 OA
ATOM      4  C   UNL     1     -15.092   9.195  21.739  0.00  0.00    +0.000 C 
ATOM      5  C   UNL     1     -13.769   9.097  22.547  0.00  0.00    +0.000 C 
ATOM      6  C   UNL     1     -14.252   9.652  23.918  0.00  0.00    +0.000 C 
ATOM      7  C   UNL     1     -15.311  10.611  23.574  0.00  0.00    +0.000 C 
BRANCH   6   8
ATOM      8  O   UNL     1     -13.177  10.385  24.485  0.00  0.00    +0.000 OA
BRANCH   8   9
ATOM      9  C   UNL     1     -13.555  11.637  25.104  0.00  0.00    +0.000 C 
BRANCH   9  10
ATOM     10  C   UNL     1     -12.510  12.676  24.793  0.00  0.00    +0.000 C 
BRANCH  10  11
ATOM     11  O   UNL     1     -13.141  13.849  24.314  0.00  0.00    +0.000 OA
BRANCH  11  12
ATOM     12  C   UNL     1     -14.469  13.953  24.790  0.00  0.00    +0.000 C 
BRANCH  12  13
ATOM     13  C   UNL     1     -15.304  14.917  23.981  0.00  0.00    +0.000 C 
BRANCH  13  14
ATOM     14  O   UNL     1     -15.830  14.181  22.871  0.00  0.00    +0.000 OA
BRANCH  14  15
ATOM     15  C   UNL     1     -17.079  14.635  22.468  0.00  0.00    +0.000 C 
BRANCH  15  16
ATOM     16  C   UNL     1     -16.966  16.095  21.953  0.00  0.00    +0.000 C 
BRANCH  16  17
ATOM     17  O   UNL     1     -16.163  16.065  20.831  0.00  0.00    +0.000 OA
BRANCH  17  18
ATOM     18  C   UNL     1     -16.519  17.067  19.861  0.00  0.00    +0.000 C 
BRANCH  18  19
ATOM     19  C   UNL     1     -15.947  16.609  18.520  0.00  0.00    +0.000 C 
BRANCH  19  20
ATOM     20  O   UNL     1     -16.948  16.454  17.589  0.00  0.00    +0.000 OA
BRANCH  20  21
ATOM     21  C   UNL     1     -17.611  17.663  17.337  0.00  0.00    +0.000 C 
BRANCH  21  23
ATOM     22  O   UNL     1     -19.095  17.006  15.596  0.00  0.00    +0.000 OA
ATOM     23  C   UNL     1     -19.050  17.416  16.980  0.00  0.00    +0.000 C 
ENDBRANCH  21  23
ENDBRANCH  20  21
ENDBRANCH  19  20
ENDBRANCH  18  19
ENDBRANCH  17  18
ENDBRANCH  16  17
ENDBRANCH  15  16
ENDBRANCH  14  15
ENDBRANCH  13  14
ENDBRANCH  12  13
ENDBRANCH  11  12
ENDBRANCH  10  11
ENDBRANCH   9  10
ENDBRANCH   8   9
ENDBRANCH   6   8
BRANCH   5  24
ATOM     24  O   UNL     1     -13.360   7.753  22.661  0.00  0.00    +0.000 OA
BRANCH  24  25
ATOM     25  C   UNL     1     -12.282   7.415  21.808  0.00  0.00    +0.000 C 
BRANCH  25  26
ATOM     26  C   UNL     1     -11.209   8.484  21.791  0.00  0.00    +0.000 C 
BRANCH  26  27
ATOM     27  O   UNL     1      -9.962   7.864  22.025  0.00  0.00    +0.000 OA
BRANCH  27  28
ATOM     28  C   UNL     1      -9.855   6.586  21.420  0.00  0.00    +0.000 C 
BRANCH  28  29
ATOM     29  C   UNL     1      -8.701   5.777  21.975  0.00  0.00    +0.000 C 
BRANCH  29  30
ATOM     30  O   UNL     1      -9.019   4.402  21.959  0.00  0.00    +0.000 OA
BRANCH  30  31
ATOM     31  C   UNL     1      -8.212   3.634  21.057  0.00  0.00    +0.000 C 
BRANCH  31  32
ATOM     32  C   UNL     1      -6.923   3.202  21.751  0.00  0.00    +0.000 C 
BRANCH  32  33
ATOM     33  O   UNL     1      -5.792   3.879  21.240  0.00  0.00    +0.000 OA
BRANCH  33  34
ATOM     34  C   UNL     1      -4.842   4.200  22.231  0.00  0.00    +0.000 C 
BRANCH  34  35
ATOM     35  C   UNL     1      -3.565   4.812  21.615  0.00  0.00    +0.000 C 
BRANCH  35  36
ATOM     36  O   UNL     1      -2.456   4.372  22.352  0.00  0.00    +0.000 OA
BRANCH  36  37
ATOM     37  C   UNL     1      -2.149   5.322  23.357  0.00  0.00    +0.000 C 
BRANCH  37  39
ATOM     38  O   UNL     1      -3.087   4.336  25.330  0.00  0.00    +0.000 OA
ATOM     39  C   UNL     1      -1.863   4.641  24.662  0.00  0.00    +0.000 C 
ENDBRANCH  37  39
ENDBRANCH  36  37
ENDBRANCH  35  36
ENDBRANCH  34  35
ENDBRANCH  33  34
ENDBRANCH  32  33
ENDBRANCH  31  32
ENDBRANCH  30  31
ENDBRANCH  29  30
ENDBRANCH  28  29
ENDBRANCH  27  28
ENDBRANCH  26  27
ENDBRANCH  25  26
ENDBRANCH  24  25
ENDBRANCH   5  24
ENDBRANCH   2   4
ENDBRANCH   1   2
BRANCH   1  40
ATOM     40  O   UNL     1     -16.956   8.645  18.955  0.00  0.00    +0.000 OA
BRANCH  40  41
ATOM     41  C   UNL     1     -18.052   7.755  18.855  0.00  0.00    +0.000 C 
BRANCH  41  42
ATOM     42  C   UNL     1     -19.362   8.512  18.616  0.00  0.00    +0.000 C 
BRANCH  42  43
ATOM     43  O   UNL     1     -19.137   9.867  18.769  0.00  0.00    +0.000 OA
BRANCH  43  44
ATOM     44  C   UNL     1     -19.783  10.417  19.916  0.00  0.00    +0.000 C 
BRANCH  44  45
ATOM     45  C   UNL     1     -20.409  11.751  19.546  0.00  0.00    +0.000 C 
BRANCH  45  46
ATOM     46  O   UNL     1     -20.309  12.623  20.628  0.00  0.00    +0.000 OA
BRANCH  46  47
ATOM     47  C   UNL     1     -19.696  12.014  21.721  0.00  0.00    +0.000 C 
BRANCH  47  48
ATOM     48  C   UNL     1     -20.344  12.526  23.008  0.00  0.00    +0.000 C 
BRANCH  48  49
ATOM     49  O   UNL     1     -19.541  12.149  24.099  0.00  0.00    +0.000 OA
BRANCH  49  50
ATOM     50  C   UNL     1     -19.909  10.922  24.686  0.00  0.00    +0.000 C 
BRANCH  50  51
ATOM     51  C   UNL     1     -18.676  10.041  24.751  0.00  0.00    +0.000 C 
BRANCH  51  52
ATOM     52  O   UNL     1     -18.280   9.982  26.135  0.00  0.00    +0.000 OA
BRANCH  52  53
ATOM     53  C   UNL     1     -19.375  10.206  27.029  0.00  0.00    +0.000 C 
BRANCH  53  54
ATOM     54  C   UNL     1     -19.108   9.646  28.380  0.00  0.00    +0.000 C 
ATOM     55  O   UNL     1     -20.232   8.887  28.786  0.00  0.00    +0.000 OA
ENDBRANCH  53  54
ENDBRANCH  52  53
ENDBRANCH  51  52
ENDBRANCH  50  51
ENDBRANCH  49  50
ENDBRANCH  48  49
ENDBRANCH  47  48
ENDBRANCH  46  47
ENDBRANCH  45  46
ENDBRANCH  44  45
ENDBRANCH  43  44
ENDBRANCH  42  43
ENDBRANCH  41  42
ENDBRANCH  40  41
ENDBRANCH   1  40
BRANCH   1  56
ATOM     56  C   UNL     1     -16.200   7.010  20.589  0.00  0.00    +0.000 C 
BRANCH  56  57
ATOM     57  O   UNL     1     -15.382   5.928  20.436  0.00  0.00    +0.000 OA
BRANCH  57  58
ATOM     58  C   UNL     1     -14.832   5.940  19.086  0.00  0.00    +0.000 C 
BRANCH  58  59
ATOM     59  C   UNL     1     -14.581   4.521  18.618  0.00  0.00    +0.000 C 
BRANCH  59  60
ATOM     60  O   UNL     1     -14.830   4.445  17.236  0.00  0.00    +0.000 OA
BRANCH  60  61
ATOM     61  C   UNL     1     -13.640   4.313  16.500  0.00  0.00    +0.000 C 
BRANCH  61  62
ATOM     62  C   UNL     1     -12.681   3.442  17.322  0.00  0.00    +0.000 C 
BRANCH  62  63
ATOM     63  O   UNL     1     -11.370   3.524  16.734  0.00  0.00    +0.000 OA
BRANCH  63  64
ATOM     64  C   UNL     1     -11.444   3.765  15.324  0.00  0.00    +0.000 C 
BRANCH  64  65
ATOM     65  C   UNL     1     -10.327   3.033  14.604  0.00  0.00    +0.000 C 
BRANCH  65  66
ATOM     66  O   UNL     1      -9.235   3.947  14.442  0.00  0.00    +0.000 OA
BRANCH  66  67
ATOM     67  C   UNL     1      -8.776   4.010  13.071  0.00  0.00    +0.000 C 
BRANCH  67  68
ATOM     68  C   UNL     1      -9.362   5.316  12.458  0.00  0.00    +0.000 C 
BRANCH  68  69
ATOM     69  O   UNL     1     -10.146   4.996  11.313  0.00  0.00    +0.000 OA
BRANCH  69  70
ATOM     70  C   UNL     1      -9.380   4.386  10.269  0.00  0.00    +0.000 C 
BRANCH  70  71
ATOM     71  C   UNL     1      -9.149   5.360   9.159  0.00  0.00    +0.000 C 
BRANCH  71  72
ATOM     72  O   UNL     1      -9.528   4.778   7.940  0.00  0.00    +0.000 OA
BRANCH  72  74
ATOM     73  O   UNL     1      -9.976   5.961   6.122  0.00  0.00    +0.000 OA
ATOM     74  C   UNL     1     -10.304   5.626   7.196  0.00  0.00    +0.000 C 
BRANCH  74  75
ATOM     75  C   UNL     1     -11.560   6.135   7.825  0.00  0.00    +0.000 C 
BRANCH  75  76
ATOM     76  C   UNL     1     -12.567   4.977   8.102  0.00  0.00    +0.000 C 
BRANCH  76  77
ATOM     77  C   UNL     1     -13.831   5.325   7.360  0.00  0.00    +0.000 C 
BRANCH  77  78
ATOM     78  C   UNL     1     -14.359   4.105   6.665  0.00  0.00    +0.000 C 
BRANCH  78  79
ATOM     79  C   UNL     1     -13.348   3.001   6.735  0.00  0.00    +0.000 C 
BRANCH  79  80
ATOM     80  C   UNL     1     -14.055   1.724   7.157  0.00  0.00    +0.000 C 
BRANCH  80  81
ATOM     81  C   UNL     1     -14.631   1.951   8.522  0.00  0.00    +0.000 C 
BRANCH  81  82
ATOM     82  C   UNL     1     -15.921   1.198   8.691  0.00  0.00    +0.000 C 
BRANCH  82  83
ATOM     83  C   UNL     1     -15.655  -0.148   9.286  0.00  0.00    +0.000 C 
BRANCH  83  84
ATOM     84  C   UNL     1     -16.761  -0.436  10.293  0.00  0.00    +0.000 C 
BRANCH  84  85
ATOM     85  C   UNL     1     -16.197  -0.324  11.670  0.00  0.00    +0.000 C 
BRANCH  85  86
ATOM     86  C   UNL     1     -16.751   0.956  12.308  0.00  0.00    +0.000 C 
BRANCH  86  87
ATOM     87  C   UNL     1     -15.607   1.928  12.546  0.00  0.00    +0.000 C 
BRANCH  87  88
ATOM     88  C   UNL     1     -14.340   1.104  12.663  0.00  0.00    +0.000 C 
BRANCH  88  89
ATOM     89  C   UNL     1     -13.781   1.298  14.062  0.00  0.00    +0.000 C 
BRANCH  89  90
ATOM     90  C   UNL     1     -13.044   0.067  14.498  0.00  0.00    +0.000 C 
ATOM     91  C   UNL     1     -13.351  -0.238  15.952  0.00  0.00    +0.000 C 
ENDBRANCH  89  90
ENDBRANCH  88  89
ENDBRANCH  87  88
ENDBRANCH  86  87
ENDBRANCH  85  86
ENDBRANCH  84  85
ENDBRANCH  83  84
ENDBRANCH  82  83
ENDBRANCH  81  82
ENDBRANCH  80  81
ENDBRANCH  79  80
ENDBRANCH  78  79
ENDBRANCH  77  78
ENDBRANCH  76  77
ENDBRANCH  75  76
ENDBRANCH  74  75
ENDBRANCH  72  74
ENDBRANCH  71  72
ENDBRANCH  70  71
ENDBRANCH  69  70
ENDBRANCH  68  69
ENDBRANCH  67  68
ENDBRANCH  66  67
ENDBRANCH  65  66
ENDBRANCH  64  65
ENDBRANCH  63  64
ENDBRANCH  62  63
ENDBRANCH  61  62
ENDBRANCH  60  61
ENDBRANCH  59  60
ENDBRANCH  58  59
ENDBRANCH  57  58
ENDBRANCH  56  57
ENDBRANCH   1  56
TORSDOF 81
ENDMDL
MODEL 6
REMARK VINA RESULT:      -6.4      1.636      2.323
REMARK  Name = human_CD1d_tween80_pred.rank_0
REMARK  81 active torsions:
REMARK  status: ('A' for Active; 'I' for Inactive)
REMARK    1  A    between atoms: C_1  and  C_3
REMARK    2  A    between atoms: C_3  and  O_4
REMARK    3  A    between atoms: O_4  and  C_5
REMARK    4  A    between atoms: C_5  and  C_7
REMARK    5  A    between atoms: O_6  and  C_7
REMARK    6  A    between atoms: O_6  and  C_9
REMARK    7  A    between atoms: O_8  and  C_11
REMARK    8  A    between atoms: O_8  and  C_13
REMARK    9  A    between atoms: C_9  and  C_11
REMARK   10  A    between atoms: O_10  and  C_15
REMARK   11  A    between atoms: O_10  and  C_17
REMARK   12  A    between atoms: O_12  and  C_19
REMARK   13  A    between atoms: O_12  and  C_21
REMARK   14  A    between atoms: C_13  and  C_15
REMARK   15  A    between atoms: O_14  and  C_23
REMARK   16  A    between atoms: O_14  and  C_25
REMARK   17  A    between atoms: O_16  and  C_27
REMARK   18  A    between atoms: O_16  and  C_29
REMARK   19  A    between atoms: C_17  and  C_19
REMARK   20  A    between atoms: O_18  and  C_31
REMARK   21  A    between atoms: O_18  and  C_33
REMARK   22  A    between atoms: O_20  and  C_35
REMARK   23  A    between atoms: O_20  and  C_37
REMARK   24  A    between atoms: C_21  and  C_23
REMARK   25  A    between atoms: C_21  and  C_67
REMARK   26  A    between atoms: O_22  and  C_39
REMARK   27  A    between atoms: O_22  and  C_41
REMARK   28  A    between atoms: O_24  and  C_43
REMARK   29  A    between atoms: O_24  and  C_45
REMARK   30  A    between atoms: C_25  and  C_27
REMARK   31  A    between atoms: O_28  and  C_69
REMARK   32  A    between atoms: O_28  and  C_70
REMARK   33  A    between atoms: C_29  and  C_31
REMARK   34  A    between atoms: O_30  and  C_71
REMARK   35  A    between atoms: O_30  and  C_72
REMARK   36  A    between atoms: O_32  and  C_73
REMARK   37  A    between atoms: O_32  and  C_74
REMARK   38  A    between atoms: C_33  and  C_35
REMARK   39  A    between atoms: O_34  and  C_75
REMARK   40  A    between atoms: O_34  and  C_76
REMARK   41  A    between atoms: O_36  and  C_77
REMARK   42  A    between atoms: O_36  and  C_78
REMARK   43  A    between atoms: C_37  and  C_39
REMARK   44  A    between atoms: O_40  and  C_80
REMARK   45  A    between atoms: O_40  and  C_81
REMARK   46  A    between atoms: C_41  and  C_43
REMARK   47  A    between atoms: O_42  and  C_82
REMARK   48  A    between atoms: O_42  and  C_83
REMARK   49  A    between atoms: O_44  and  C_84
REMARK   50  A    between atoms: O_44  and  C_85
REMARK   51  A    between atoms: C_45  and  C_47
REMARK   52  A    between atoms: O_46  and  C_86
REMARK   53  A    between atoms: O_46  and  C_87
REMARK   54  A    between atoms: C_47  and  C_49
REMARK   55  A    between atoms: O_48  and  C_88
REMARK   56  A    between atoms: O_48  and  C_89
REMARK   57  A    between atoms: C_49  and  C_51
REMARK   58  A    between atoms: C_51  and  C_53
REMARK   59  A    between atoms: C_53  and  C_54
REMARK   60  A    between atoms: C_54  and  C_55
REMARK   61  A    between atoms: C_55  and  C_56
REMARK   62  A    between atoms: C_56  and  C_57
REMARK   63  A    between atoms: C_57  and  C_58
REMARK   64  A    between atoms: C_58  and  C_59
REMARK   65  A    between atoms: C_59  and  C_60
REMARK   66  A    between atoms: C_60  and  C_61
REMARK   67  A    between atoms: C_61  and  C_62
REMARK   68  A    between atoms: C_62  and  C_63
REMARK   69  A    between atoms: C_63  and  C_64
REMARK   70  A    between atoms: C_64  and  C_65
REMARK   71  A    between atoms: C_67  and  C_68
REMARK   72  A    between atoms: C_70  and  C_71
REMARK   73  A    between atoms: C_72  and  C_73
REMARK   74  A    between atoms: C_74  and  C_75
REMARK   75  A    between atoms: C_76  and  C_77
REMARK   76  A    between atoms: C_78  and  C_79
REMARK   77  A    between atoms: C_81  and  C_82
REMARK   78  A    between atoms: C_83  and  C_84
REMARK   79  A    between atoms: C_85  and  C_86
REMARK   80  A    between atoms: C_87  and  C_88
REMARK   81  A    between atoms: C_89  and  C_90
REMARK                            x       y       z     vdW  Elec       q    Type
REMARK                         _______ _______ _______ _____ _____    ______ ____
ROOT
ATOM      1  C   UNL     1     -16.292   8.674  19.293  0.00  0.00    +0.000 C 
ENDROOT
BRANCH   1   2
ATOM      2  C   UNL     1     -15.130   9.531  20.135  0.00  0.00    +0.000 C 
BRANCH   2   4
ATOM      3  O   UNL     1     -15.731  10.658  22.182  0.00  0.00    +0.000 OA
ATOM      4  C   UNL     1     -15.351   9.456  21.610  0.00  0.00    +0.000 C 
ATOM      5  C   UNL     1     -14.037   9.264  22.415  0.00  0.00    +0.000 C 
ATOM      6  C   UNL     1     -14.513   9.730  23.821  0.00  0.00    +0.000 C 
ATOM      7  C   UNL     1     -15.544  10.741  23.542  0.00  0.00    +0.000 C 
BRANCH   6   8
ATOM      8  O   UNL     1     -13.423  10.391  24.444  0.00  0.00    +0.000 OA
BRANCH   8   9
ATOM      9  C   UNL     1     -13.740  11.684  25.010  0.00  0.00    +0.000 C 
BRANCH   9  10
ATOM     10  C   UNL     1     -13.730  11.579  26.513  0.00  0.00    +0.000 C 
BRANCH  10  11
ATOM     11  O   UNL     1     -13.877  12.869  27.076  0.00  0.00    +0.000 OA
BRANCH  11  12
ATOM     12  C   UNL     1     -13.452  12.895  28.425  0.00  0.00    +0.000 C 
BRANCH  12  13
ATOM     13  C   UNL     1     -12.173  12.125  28.648  0.00  0.00    +0.000 C 
BRANCH  13  14
ATOM     14  O   UNL     1     -11.253  13.020  29.282  0.00  0.00    +0.000 OA
BRANCH  14  15
ATOM     15  C   UNL     1     -10.281  13.500  28.413  0.00  0.00    +0.000 C 
BRANCH  15  16
ATOM     16  C   UNL     1      -8.874  13.292  29.034  0.00  0.00    +0.000 C 
BRANCH  16  17
ATOM     17  O   UNL     1      -8.885  12.057  29.651  0.00  0.00    +0.000 OA
BRANCH  17  18
ATOM     18  C   UNL     1      -7.576  11.465  29.743  0.00  0.00    +0.000 C 
BRANCH  18  19
ATOM     19  C   UNL     1      -7.273  10.842  28.381  0.00  0.00    +0.000 C 
BRANCH  19  20
ATOM     20  O   UNL     1      -6.817   9.552  28.525  0.00  0.00    +0.000 OA
BRANCH  20  21
ATOM     21  C   UNL     1      -7.539   8.855  29.504  0.00  0.00    +0.000 C 
BRANCH  21  23
ATOM     22  O   UNL     1      -8.346   6.663  29.045  0.00  0.00    +0.000 OA
ATOM     23  C   UNL     1      -8.655   8.064  28.881  0.00  0.00    +0.000 C 
ENDBRANCH  21  23
ENDBRANCH  20  21
ENDBRANCH  19  20
ENDBRANCH  18  19
ENDBRANCH  17  18
ENDBRANCH  16  17
ENDBRANCH  15  16
ENDBRANCH  14  15
ENDBRANCH  13  14
ENDBRANCH  12  13
ENDBRANCH  11  12
ENDBRANCH  10  11
ENDBRANCH   9  10
ENDBRANCH   8   9
ENDBRANCH   6   8
BRANCH   5  24
ATOM     24  O   UNL     1     -13.665   7.905  22.433  0.00  0.00    +0.000 OA
BRANCH  24  25
ATOM     25  C   UNL     1     -12.269   7.702  22.561  0.00  0.00    +0.000 C 
BRANCH  25  26
ATOM     26  C   UNL     1     -11.481   8.483  21.530  0.00  0.00    +0.000 C 
BRANCH  26  27
ATOM     27  O   UNL     1     -10.252   7.820  21.317  0.00  0.00    +0.000 OA
BRANCH  27  28
ATOM     28  C   UNL     1      -9.850   7.026  22.421  0.00  0.00    +0.000 C 
BRANCH  28  29
ATOM     29  C   UNL     1      -9.141   5.758  21.995  0.00  0.00    +0.000 C 
BRANCH  29  30
ATOM     30  O   UNL     1      -7.799   5.780  22.434  0.00  0.00    +0.000 OA
BRANCH  30  31
ATOM     31  C   UNL     1      -7.218   4.477  22.575  0.00  0.00    +0.000 C 
BRANCH  31  32
ATOM     32  C   UNL     1      -6.143   4.270  21.511  0.00  0.00    +0.000 C 
BRANCH  32  33
ATOM     33  O   UNL     1      -4.885   3.966  22.079  0.00  0.00    +0.000 OA
BRANCH  33  34
ATOM     34  C   UNL     1      -4.936   3.779  23.475  0.00  0.00    +0.000 C 
BRANCH  34  35
ATOM     35  C   UNL     1      -4.145   4.875  24.223  0.00  0.00    +0.000 C 
BRANCH  35  36
ATOM     36  O   UNL     1      -2.825   4.437  24.396  0.00  0.00    +0.000 OA
BRANCH  36  37
ATOM     37  C   UNL     1      -1.952   5.553  24.391  0.00  0.00    +0.000 C 
BRANCH  37  39
ATOM     38  O   UNL     1      -1.809   7.918  24.025  0.00  0.00    +0.000 OA
ATOM     39  C   UNL     1      -2.659   6.778  23.892  0.00  0.00    +0.000 C 
ENDBRANCH  37  39
ENDBRANCH  36  37
ENDBRANCH  35  36
ENDBRANCH  34  35
ENDBRANCH  33  34
ENDBRANCH  32  33
ENDBRANCH  31  32
ENDBRANCH  30  31
ENDBRANCH  29  30
ENDBRANCH  28  29
ENDBRANCH  27  28
ENDBRANCH  26  27
ENDBRANCH  25  26
ENDBRANCH  24  25
ENDBRANCH   5  24
ENDBRANCH   2   4
ENDBRANCH   1   2
BRANCH   1  40
ATOM     40  O   UNL     1     -17.471   8.631  20.109  0.00  0.00    +0.000 OA
BRANCH  40  41
ATOM     41  C   UNL     1     -18.575   9.209  19.437  0.00  0.00    +0.000 C 
BRANCH  41  42
ATOM     42  C   UNL     1     -19.166   8.241  18.408  0.00  0.00    +0.000 C 
BRANCH  42  43
ATOM     43  O   UNL     1     -20.297   8.805  17.851  0.00  0.00    +0.000 OA
BRANCH  43  44
ATOM     44  C   UNL     1     -20.981   9.687  18.741  0.00  0.00    +0.000 C 
BRANCH  44  45
ATOM     45  C   UNL     1     -22.421   9.227  18.892  0.00  0.00    +0.000 C 
BRANCH  45  46
ATOM     46  O   UNL     1     -22.730   8.334  17.869  0.00  0.00    +0.000 OA
BRANCH  46  47
ATOM     47  C   UNL     1     -24.102   8.102  17.790  0.00  0.00    +0.000 C 
BRANCH  47  48
ATOM     48  C   UNL     1     -24.397   6.677  18.260  0.00  0.00    +0.000 C 
BRANCH  48  49
ATOM     49  O   UNL     1     -23.205   5.932  18.219  0.00  0.00    +0.000 OA
BRANCH  49  50
ATOM     50  C   UNL     1     -23.265   4.713  18.924  0.00  0.00    +0.000 C 
BRANCH  50  51
ATOM     51  C   UNL     1     -23.008   3.586  17.942  0.00  0.00    +0.000 C 
BRANCH  51  52
ATOM     52  O   UNL     1     -22.682   2.420  18.723  0.00  0.00    +0.000 OA
BRANCH  52  53
ATOM     53  C   UNL     1     -22.150   2.753  20.010  0.00  0.00    +0.000 C 
BRANCH  53  54
ATOM     54  C   UNL     1     -22.648   1.835  21.068  0.00  0.00    +0.000 C 
ATOM     55  O   UNL     1     -21.771   1.905  22.178  0.00  0.00    +0.000 OA
ENDBRANCH  53  54
ENDBRANCH  52  53
ENDBRANCH  51  52
ENDBRANCH  50  51
ENDBRANCH  49  50
ENDBRANCH  48  49
ENDBRANCH  47  48
ENDBRANCH  46  47
ENDBRANCH  45  46
ENDBRANCH  44  45
ENDBRANCH  43  44
ENDBRANCH  42  43
ENDBRANCH  41  42
ENDBRANCH  40  41
ENDBRANCH   1  40
BRANCH   1  56
ATOM     56  C   UNL     1     -15.733   7.307  19.042  0.00  0.00    +0.000 C 
BRANCH  56  57
ATOM     57  O   UNL     1     -16.432   6.448  19.841  0.00  0.00    +0.000 OA
BRANCH  57  58
ATOM     58  C   UNL     1     -15.491   5.580  20.537  0.00  0.00    +0.000 C 
BRANCH  58  59
ATOM     59  C   UNL     1     -14.977   4.513  19.592  0.00  0.00    +0.000 C 
BRANCH  59  60
ATOM     60  O   UNL     1     -13.573   4.577  19.552  0.00  0.00    +0.000 OA
BRANCH  60  61
ATOM     61  C   UNL     1     -13.058   3.982  18.387  0.00  0.00    +0.000 C 
BRANCH  61  62
ATOM     62  C   UNL     1     -13.790   4.601  17.188  0.00  0.00    +0.000 C 
BRANCH  62  63
ATOM     63  O   UNL     1     -12.972   4.431  16.016  0.00  0.00    +0.000 OA
BRANCH  63  64
ATOM     64  C   UNL     1     -11.837   3.600  16.286  0.00  0.00    +0.000 C 
BRANCH  64  65
ATOM     65  C   UNL     1     -10.897   3.586  15.094  0.00  0.00    +0.000 C 
BRANCH  65  66
ATOM     66  O   UNL     1     -11.508   4.345  14.044  0.00  0.00    +0.000 OA
BRANCH  66  67
ATOM     67  C   UNL     1     -10.567   4.678  12.996  0.00  0.00    +0.000 C 
BRANCH  67  68
ATOM     68  C   UNL     1     -10.306   3.371  12.191  0.00  0.00    +0.000 C 
BRANCH  68  69
ATOM     69  O   UNL     1      -9.213   3.569  11.300  0.00  0.00    +0.000 OA
BRANCH  69  70
ATOM     70  C   UNL     1      -8.844   4.945  11.172  0.00  0.00    +0.000 C 
BRANCH  70  71
ATOM     71  C   UNL     1      -8.961   5.383   9.747  0.00  0.00    +0.000 C 
BRANCH  71  72
ATOM     72  O   UNL     1      -9.229   4.271   8.936  0.00  0.00    +0.000 OA
BRANCH  72  74
ATOM     73  O   UNL     1      -9.926   4.801   6.901  0.00  0.00    +0.000 OA
ATOM     74  C   UNL     1     -10.201   4.543   8.011  0.00  0.00    +0.000 C 
BRANCH  74  75
ATOM     75  C   UNL     1     -11.618   4.535   8.485  0.00  0.00    +0.000 C 
BRANCH  75  76
ATOM     76  C   UNL     1     -12.405   5.770   7.949  0.00  0.00    +0.000 C 
BRANCH  76  77
ATOM     77  C   UNL     1     -13.708   5.242   7.407  0.00  0.00    +0.000 C 
BRANCH  77  78
ATOM     78  C   UNL     1     -13.440   4.359   6.223  0.00  0.00    +0.000 C 
BRANCH  78  79
ATOM     79  C   UNL     1     -14.371   3.184   6.243  0.00  0.00    +0.000 C 
BRANCH  79  80
ATOM     80  C   UNL     1     -14.353   2.576   7.635  0.00  0.00    +0.000 C 
BRANCH  80  81
ATOM     81  C   UNL     1     -15.765   2.227   7.999  0.00  0.00    +0.000 C 
BRANCH  81  82
ATOM     82  C   UNL     1     -15.808   1.425   9.269  0.00  0.00    +0.000 C 
BRANCH  82  83
ATOM     83  C   UNL     1     -15.161   0.094   9.058  0.00  0.00    +0.000 C 
BRANCH  83  84
ATOM     84  C   UNL     1     -15.868  -0.913   9.956  0.00  0.00    +0.000 C 
BRANCH  84  85
ATOM     85  C   UNL     1     -16.796  -0.177  10.864  0.00  0.00    +0.000 C 
BRANCH  85  86
ATOM     86  C   UNL     1     -16.354  -0.440  12.309  0.00  0.00    +0.000 C 
BRANCH  86  87
ATOM     87  C   UNL     1     -15.191  -1.417  12.303  0.00  0.00    +0.000 C 
BRANCH  87  88
ATOM     88  C   UNL     1     -14.120  -0.841  13.209  0.00  0.00    +0.000 C 
BRANCH  88  89
ATOM     89  C   UNL     1     -13.713   0.513  12.652  0.00  0.00    +0.000 C 
BRANCH  89  90
ATOM     90  C   UNL     1     -13.621   1.519  13.761  0.00  0.00    +0.000 C 
ATOM     91  C   UNL     1     -14.665   2.604  13.569  0.00  0.00    +0.000 C 
ENDBRANCH  89  90
ENDBRANCH  88  89
ENDBRANCH  87  88
ENDBRANCH  86  87
ENDBRANCH  85  86
ENDBRANCH  84  85
ENDBRANCH  83  84
ENDBRANCH  82  83
ENDBRANCH  81  82
ENDBRANCH  80  81
ENDBRANCH  79  80
ENDBRANCH  78  79
ENDBRANCH  77  78
ENDBRANCH  76  77
ENDBRANCH  75  76
ENDBRANCH  74  75
ENDBRANCH  72  74
ENDBRANCH  71  72
ENDBRANCH  70  71
ENDBRANCH  69  70
ENDBRANCH  68  69
ENDBRANCH  67  68
ENDBRANCH  66  67
ENDBRANCH  65  66
ENDBRANCH  64  65
ENDBRANCH  63  64
ENDBRANCH  62  63
ENDBRANCH  61  62
ENDBRANCH  60  61
ENDBRANCH  59  60
ENDBRANCH  58  59
ENDBRANCH  57  58
ENDBRANCH  56  57
ENDBRANCH   1  56
TORSDOF 81
ENDMDL
MODEL 7
REMARK VINA RESULT:      -6.3      1.715      2.361
REMARK  Name = human_CD1d_tween80_pred.rank_0
REMARK  81 active torsions:
REMARK  status: ('A' for Active; 'I' for Inactive)
REMARK    1  A    between atoms: C_1  and  C_3
REMARK    2  A    between atoms: C_3  and  O_4
REMARK    3  A    between atoms: O_4  and  C_5
REMARK    4  A    between atoms: C_5  and  C_7
REMARK    5  A    between atoms: O_6  and  C_7
REMARK    6  A    between atoms: O_6  and  C_9
REMARK    7  A    between atoms: O_8  and  C_11
REMARK    8  A    between atoms: O_8  and  C_13
REMARK    9  A    between atoms: C_9  and  C_11
REMARK   10  A    between atoms: O_10  and  C_15
REMARK   11  A    between atoms: O_10  and  C_17
REMARK   12  A    between atoms: O_12  and  C_19
REMARK   13  A    between atoms: O_12  and  C_21
REMARK   14  A    between atoms: C_13  and  C_15
REMARK   15  A    between atoms: O_14  and  C_23
REMARK   16  A    between atoms: O_14  and  C_25
REMARK   17  A    between atoms: O_16  and  C_27
REMARK   18  A    between atoms: O_16  and  C_29
REMARK   19  A    between atoms: C_17  and  C_19
REMARK   20  A    between atoms: O_18  and  C_31
REMARK   21  A    between atoms: O_18  and  C_33
REMARK   22  A    between atoms: O_20  and  C_35
REMARK   23  A    between atoms: O_20  and  C_37
REMARK   24  A    between atoms: C_21  and  C_23
REMARK   25  A    between atoms: C_21  and  C_67
REMARK   26  A    between atoms: O_22  and  C_39
REMARK   27  A    between atoms: O_22  and  C_41
REMARK   28  A    between atoms: O_24  and  C_43
REMARK   29  A    between atoms: O_24  and  C_45
REMARK   30  A    between atoms: C_25  and  C_27
REMARK   31  A    between atoms: O_28  and  C_69
REMARK   32  A    between atoms: O_28  and  C_70
REMARK   33  A    between atoms: C_29  and  C_31
REMARK   34  A    between atoms: O_30  and  C_71
REMARK   35  A    between atoms: O_30  and  C_72
REMARK   36  A    between atoms: O_32  and  C_73
REMARK   37  A    between atoms: O_32  and  C_74
REMARK   38  A    between atoms: C_33  and  C_35
REMARK   39  A    between atoms: O_34  and  C_75
REMARK   40  A    between atoms: O_34  and  C_76
REMARK   41  A    between atoms: O_36  and  C_77
REMARK   42  A    between atoms: O_36  and  C_78
REMARK   43  A    between atoms: C_37  and  C_39
REMARK   44  A    between atoms: O_40  and  C_80
REMARK   45  A    between atoms: O_40  and  C_81
REMARK   46  A    between atoms: C_41  and  C_43
REMARK   47  A    between atoms: O_42  and  C_82
REMARK   48  A    between atoms: O_42  and  C_83
REMARK   49  A    between atoms: O_44  and  C_84
REMARK   50  A    between atoms: O_44  and  C_85
REMARK   51  A    between atoms: C_45  and  C_47
REMARK   52  A    between atoms: O_46  and  C_86
REMARK   53  A    between atoms: O_46  and  C_87
REMARK   54  A    between atoms: C_47  and  C_49
REMARK   55  A    between atoms: O_48  and  C_88
REMARK   56  A    between atoms: O_48  and  C_89
REMARK   57  A    between atoms: C_49  and  C_51
REMARK   58  A    between atoms: C_51  and  C_53
REMARK   59  A    between atoms: C_53  and  C_54
REMARK   60  A    between atoms: C_54  and  C_55
REMARK   61  A    between atoms: C_55  and  C_56
REMARK   62  A    between atoms: C_56  and  C_57
REMARK   63  A    between atoms: C_57  and  C_58
REMARK   64  A    between atoms: C_58  and  C_59
REMARK   65  A    between atoms: C_59  and  C_60
REMARK   66  A    between atoms: C_60  and  C_61
REMARK   67  A    between atoms: C_61  and  C_62
REMARK   68  A    between atoms: C_62  and  C_63
REMARK   69  A    between atoms: C_63  and  C_64
REMARK   70  A    between atoms: C_64  and  C_65
REMARK   71  A    between atoms: C_67  and  C_68
REMARK   72  A    between atoms: C_70  and  C_71
REMARK   73  A    between atoms: C_72  and  C_73
REMARK   74  A    between atoms: C_74  and  C_75
REMARK   75  A    between atoms: C_76  and  C_77
REMARK   76  A    between atoms: C_78  and  C_79
REMARK   77  A    between atoms: C_81  and  C_82
REMARK   78  A    between atoms: C_83  and  C_84
REMARK   79  A    between atoms: C_85  and  C_86
REMARK   80  A    between atoms: C_87  and  C_88
REMARK   81  A    between atoms: C_89  and  C_90
REMARK                            x       y       z     vdW  Elec       q    Type
REMARK                         _______ _______ _______ _____ _____    ______ ____
ROOT
ATOM      1  C   UNL     1     -16.215   8.176  18.994  0.00  0.00    +0.000 C 
ENDROOT
BRANCH   1   2
ATOM      2  C   UNL     1     -15.337   9.347  19.801  0.00  0.00    +0.000 C 
BRANCH   2   4
ATOM      3  O   UNL     1     -15.913  10.567  21.802  0.00  0.00    +0.000 OA
ATOM      4  C   UNL     1     -15.610   9.326  21.270  0.00  0.00    +0.000 C 
ATOM      5  C   UNL     1     -14.340   9.053  22.122  0.00  0.00    +0.000 C 
ATOM      6  C   UNL     1     -14.824   9.589  23.500  0.00  0.00    +0.000 C 
ATOM      7  C   UNL     1     -15.764  10.668  23.165  0.00  0.00    +0.000 C 
BRANCH   6   8
ATOM      8  O   UNL     1     -13.705  10.180  24.145  0.00  0.00    +0.000 OA
BRANCH   8   9
ATOM      9  C   UNL     1     -13.161   9.410  25.243  0.00  0.00    +0.000 C 
BRANCH   9  10
ATOM     10  C   UNL     1     -13.410  10.148  26.532  0.00  0.00    +0.000 C 
BRANCH  10  11
ATOM     11  O   UNL     1     -12.245  10.864  26.897  0.00  0.00    +0.000 OA
BRANCH  11  12
ATOM     12  C   UNL     1     -11.768  10.463  28.167  0.00  0.00    +0.000 C 
BRANCH  12  13
ATOM     13  C   UNL     1     -10.914   9.219  28.102  0.00  0.00    +0.000 C 
BRANCH  13  14
ATOM     14  O   UNL     1     -11.579   8.217  28.880  0.00  0.00    +0.000 OA
BRANCH  14  15
ATOM     15  C   UNL     1     -10.830   7.799  29.973  0.00  0.00    +0.000 C 
BRANCH  15  16
ATOM     16  C   UNL     1     -11.313   8.535  31.252  0.00  0.00    +0.000 C 
BRANCH  16  17
ATOM     17  O   UNL     1     -10.189   9.033  31.878  0.00  0.00    +0.000 OA
BRANCH  17  18
ATOM     18  C   UNL     1      -9.816  10.340  31.404  0.00  0.00    +0.000 C 
BRANCH  18  19
ATOM     19  C   UNL     1      -8.375  10.581  31.854  0.00  0.00    +0.000 C 
BRANCH  19  20
ATOM     20  O   UNL     1      -7.590  10.962  30.791  0.00  0.00    +0.000 OA
BRANCH  20  21
ATOM     21  C   UNL     1      -7.613  10.008  29.763  0.00  0.00    +0.000 C 
BRANCH  21  23
ATOM     22  O   UNL     1      -5.378  10.337  29.011  0.00  0.00    +0.000 OA
ATOM     23  C   UNL     1      -6.760  10.451  28.608  0.00  0.00    +0.000 C 
ENDBRANCH  21  23
ENDBRANCH  20  21
ENDBRANCH  19  20
ENDBRANCH  18  19
ENDBRANCH  17  18
ENDBRANCH  16  17
ENDBRANCH  15  16
ENDBRANCH  14  15
ENDBRANCH  13  14
ENDBRANCH  12  13
ENDBRANCH  11  12
ENDBRANCH  10  11
ENDBRANCH   9  10
ENDBRANCH   8   9
ENDBRANCH   6   8
BRANCH   5  24
ATOM     24  O   UNL     1     -14.075   7.670  22.182  0.00  0.00    +0.000 OA
BRANCH  24  25
ATOM     25  C   UNL     1     -12.784   7.321  21.717  0.00  0.00    +0.000 C 
BRANCH  25  26
ATOM     26  C   UNL     1     -11.893   8.533  21.540  0.00  0.00    +0.000 C 
BRANCH  26  27
ATOM     27  O   UNL     1     -10.561   8.086  21.396  0.00  0.00    +0.000 OA
BRANCH  27  28
ATOM     28  C   UNL     1     -10.167   7.177  22.411  0.00  0.00    +0.000 C 
BRANCH  28  29
ATOM     29  C   UNL     1      -9.257   6.085  21.891  0.00  0.00    +0.000 C 
BRANCH  29  30
ATOM     30  O   UNL     1      -8.560   5.481  22.960  0.00  0.00    +0.000 OA
BRANCH  30  31
ATOM     31  C   UNL     1      -7.164   5.805  22.994  0.00  0.00    +0.000 C 
BRANCH  31  32
ATOM     32  C   UNL     1      -6.377   4.803  22.154  0.00  0.00    +0.000 C 
BRANCH  32  33
ATOM     33  O   UNL     1      -5.257   4.291  22.849  0.00  0.00    +0.000 OA
BRANCH  33  34
ATOM     34  C   UNL     1      -4.726   5.195  23.790  0.00  0.00    +0.000 C 
BRANCH  34  35
ATOM     35  C   UNL     1      -3.899   4.466  24.872  0.00  0.00    +0.000 C 
BRANCH  35  36
ATOM     36  O   UNL     1      -2.723   5.194  25.104  0.00  0.00    +0.000 OA
BRANCH  36  37
ATOM     37  C   UNL     1      -1.619   4.307  25.152  0.00  0.00    +0.000 C 
BRANCH  37  39
ATOM     38  O   UNL     1      -0.199   5.626  23.741  0.00  0.00    +0.000 OA
ATOM     39  C   UNL     1      -0.327   5.061  25.046  0.00  0.00    +0.000 C 
ENDBRANCH  37  39
ENDBRANCH  36  37
ENDBRANCH  35  36
ENDBRANCH  34  35
ENDBRANCH  33  34
ENDBRANCH  32  33
ENDBRANCH  31  32
ENDBRANCH  30  31
ENDBRANCH  29  30
ENDBRANCH  28  29
ENDBRANCH  27  28
ENDBRANCH  26  27
ENDBRANCH  25  26
ENDBRANCH  24  25
ENDBRANCH   5  24
ENDBRANCH   2   4
ENDBRANCH   1   2
BRANCH   1  40
ATOM     40  O   UNL     1     -17.463   8.024  19.683  0.00  0.00    +0.000 OA
BRANCH  40  41
ATOM     41  C   UNL     1     -18.555   8.141  18.789  0.00  0.00    +0.000 C 
BRANCH  41  42
ATOM     42  C   UNL     1     -18.952   9.606  18.588  0.00  0.00    +0.000 C 
BRANCH  42  43
ATOM     43  O   UNL     1     -19.668  10.037  19.688  0.00  0.00    +0.000 OA
BRANCH  43  44
ATOM     44  C   UNL     1     -20.815  10.813  19.343  0.00  0.00    +0.000 C 
BRANCH  44  45
ATOM     45  C   UNL     1     -21.642  10.056  18.318  0.00  0.00    +0.000 C 
BRANCH  45  46
ATOM     46  O   UNL     1     -22.979  10.064  18.708  0.00  0.00    +0.000 OA
BRANCH  46  47
ATOM     47  C   UNL     1     -23.544  11.331  18.571  0.00  0.00    +0.000 C 
BRANCH  47  48
ATOM     48  C   UNL     1     -24.807  11.226  17.715  0.00  0.00    +0.000 C 
BRANCH  48  49
ATOM     49  O   UNL     1     -24.429  11.006  16.378  0.00  0.00    +0.000 OA
BRANCH  49  50
ATOM     50  C   UNL     1     -25.165   9.990  15.735  0.00  0.00    +0.000 C 
BRANCH  50  51
ATOM     51  C   UNL     1     -25.813   9.128  16.801  0.00  0.00    +0.000 C 
BRANCH  51  52
ATOM     52  O   UNL     1     -25.592   7.757  16.418  0.00  0.00    +0.000 OA
BRANCH  52  53
ATOM     53  C   UNL     1     -25.062   6.968  17.488  0.00  0.00    +0.000 C 
BRANCH  53  54
ATOM     54  C   UNL     1     -23.596   6.763  17.350  0.00  0.00    +0.000 C 
ATOM     55  O   UNL     1     -23.276   5.458  17.797  0.00  0.00    +0.000 OA
ENDBRANCH  53  54
ENDBRANCH  52  53
ENDBRANCH  51  52
ENDBRANCH  50  51
ENDBRANCH  49  50
ENDBRANCH  48  49
ENDBRANCH  47  48
ENDBRANCH  46  47
ENDBRANCH  45  46
ENDBRANCH  44  45
ENDBRANCH  43  44
ENDBRANCH  42  43
ENDBRANCH  41  42
ENDBRANCH  40  41
ENDBRANCH   1  40
BRANCH   1  56
ATOM     56  C   UNL     1     -15.401   6.920  19.022  0.00  0.00    +0.000 C 
BRANCH  56  57
ATOM     57  O   UNL     1     -16.062   6.045  19.836  0.00  0.00    +0.000 OA
BRANCH  57  58
ATOM     58  C   UNL     1     -15.176   4.931  20.149  0.00  0.00    +0.000 C 
BRANCH  58  59
ATOM     59  C   UNL     1     -14.978   4.067  18.921  0.00  0.00    +0.000 C 
BRANCH  59  60
ATOM     60  O   UNL     1     -13.609   4.032  18.603  0.00  0.00    +0.000 OA
BRANCH  60  61
ATOM     61  C   UNL     1     -13.385   3.479  17.330  0.00  0.00    +0.000 C 
BRANCH  61  62
ATOM     62  C   UNL     1     -13.569   4.601  16.299  0.00  0.00    +0.000 C 
BRANCH  62  63
ATOM     63  O   UNL     1     -12.459   4.567  15.382  0.00  0.00    +0.000 OA
BRANCH  63  64
ATOM     64  C   UNL     1     -11.468   3.620  15.798  0.00  0.00    +0.000 C 
BRANCH  64  65
ATOM     65  C   UNL     1     -10.546   3.280  14.642  0.00  0.00    +0.000 C 
BRANCH  65  66
ATOM     66  O   UNL     1     -11.361   2.904  13.525  0.00  0.00    +0.000 OA
BRANCH  66  67
ATOM     67  C   UNL     1     -10.728   3.211  12.261  0.00  0.00    +0.000 C 
BRANCH  67  68
ATOM     68  C   UNL     1      -9.196   3.016  12.463  0.00  0.00    +0.000 C 
BRANCH  68  69
ATOM     69  O   UNL     1      -8.486   3.738  11.462  0.00  0.00    +0.000 OA
BRANCH  69  70
ATOM     70  C   UNL     1      -8.994   5.061  11.267  0.00  0.00    +0.000 C 
BRANCH  70  71
ATOM     71  C   UNL     1      -9.026   5.395   9.810  0.00  0.00    +0.000 C 
BRANCH  71  72
ATOM     72  O   UNL     1      -9.283   4.233   9.069  0.00  0.00    +0.000 OA
BRANCH  72  74
ATOM     73  O   UNL     1     -10.086   4.406   7.012  0.00  0.00    +0.000 OA
ATOM     74  C   UNL     1     -10.294   4.424   8.166  0.00  0.00    +0.000 C 
BRANCH  74  75
ATOM     75  C   UNL     1     -11.658   4.695   8.711  0.00  0.00    +0.000 C 
BRANCH  75  76
ATOM     76  C   UNL     1     -12.373   5.833   7.921  0.00  0.00    +0.000 C 
BRANCH  76  77
ATOM     77  C   UNL     1     -13.677   5.258   7.433  0.00  0.00    +0.000 C 
BRANCH  77  78
ATOM     78  C   UNL     1     -13.420   4.333   6.279  0.00  0.00    +0.000 C 
BRANCH  78  79
ATOM     79  C   UNL     1     -14.445   3.239   6.265  0.00  0.00    +0.000 C 
BRANCH  79  80
ATOM     80  C   UNL     1     -15.133   3.205   7.619  0.00  0.00    +0.000 C 
BRANCH  80  81
ATOM     81  C   UNL     1     -14.477   2.133   8.437  0.00  0.00    +0.000 C 
BRANCH  81  82
ATOM     82  C   UNL     1     -15.498   1.353   9.216  0.00  0.00    +0.000 C 
BRANCH  82  83
ATOM     83  C   UNL     1     -15.267  -0.115   9.038  0.00  0.00    +0.000 C 
BRANCH  83  84
ATOM     84  C   UNL     1     -16.250  -0.850   9.941  0.00  0.00    +0.000 C 
BRANCH  84  85
ATOM     85  C   UNL     1     -16.775   0.106  10.959  0.00  0.00    +0.000 C 
BRANCH  85  86
ATOM     86  C   UNL     1     -16.445  -0.450  12.349  0.00  0.00    +0.000 C 
BRANCH  86  87
ATOM     87  C   UNL     1     -15.127   0.141  12.821  0.00  0.00    +0.000 C 
BRANCH  87  88
ATOM     88  C   UNL     1     -14.555  -0.812  13.852  0.00  0.00    +0.000 C 
BRANCH  88  89
ATOM     89  C   UNL     1     -13.086  -0.473  14.041  0.00  0.00    +0.000 C 
BRANCH  89  90
ATOM     90  C   UNL     1     -12.891   0.277  15.324  0.00  0.00    +0.000 C 
ATOM     91  C   UNL     1     -13.561  -0.462  16.468  0.00  0.00    +0.000 C 
ENDBRANCH  89  90
ENDBRANCH  88  89
ENDBRANCH  87  88
ENDBRANCH  86  87
ENDBRANCH  85  86
ENDBRANCH  84  85
ENDBRANCH  83  84
ENDBRANCH  82  83
ENDBRANCH  81  82
ENDBRANCH  80  81
ENDBRANCH  79  80
ENDBRANCH  78  79
ENDBRANCH  77  78
ENDBRANCH  76  77
ENDBRANCH  75  76
ENDBRANCH  74  75
ENDBRANCH  72  74
ENDBRANCH  71  72
ENDBRANCH  70  71
ENDBRANCH  69  70
ENDBRANCH  68  69
ENDBRANCH  67  68
ENDBRANCH  66  67
ENDBRANCH  65  66
ENDBRANCH  64  65
ENDBRANCH  63  64
ENDBRANCH  62  63
ENDBRANCH  61  62
ENDBRANCH  60  61
ENDBRANCH  59  60
ENDBRANCH  58  59
ENDBRANCH  57  58
ENDBRANCH  56  57
ENDBRANCH   1  56
TORSDOF 81
ENDMDL
MODEL 8
REMARK VINA RESULT:      -6.3      1.672      5.423
REMARK  Name = human_CD1d_tween80_pred.rank_0
REMARK  81 active torsions:
REMARK  status: ('A' for Active; 'I' for Inactive)
REMARK    1  A    between atoms: C_1  and  C_3
REMARK    2  A    between atoms: C_3  and  O_4
REMARK    3  A    between atoms: O_4  and  C_5
REMARK    4  A    between atoms: C_5  and  C_7
REMARK    5  A    between atoms: O_6  and  C_7
REMARK    6  A    between atoms: O_6  and  C_9
REMARK    7  A    between atoms: O_8  and  C_11
REMARK    8  A    between atoms: O_8  and  C_13
REMARK    9  A    between atoms: C_9  and  C_11
REMARK   10  A    between atoms: O_10  and  C_15
REMARK   11  A    between atoms: O_10  and  C_17
REMARK   12  A    between atoms: O_12  and  C_19
REMARK   13  A    between atoms: O_12  and  C_21
REMARK   14  A    between atoms: C_13  and  C_15
REMARK   15  A    between atoms: O_14  and  C_23
REMARK   16  A    between atoms: O_14  and  C_25
REMARK   17  A    between atoms: O_16  and  C_27
REMARK   18  A    between atoms: O_16  and  C_29
REMARK   19  A    between atoms: C_17  and  C_19
REMARK   20  A    between atoms: O_18  and  C_31
REMARK   21  A    between atoms: O_18  and  C_33
REMARK   22  A    between atoms: O_20  and  C_35
REMARK   23  A    between atoms: O_20  and  C_37
REMARK   24  A    between atoms: C_21  and  C_23
REMARK   25  A    between atoms: C_21  and  C_67
REMARK   26  A    between atoms: O_22  and  C_39
REMARK   27  A    between atoms: O_22  and  C_41
REMARK   28  A    between atoms: O_24  and  C_43
REMARK   29  A    between atoms: O_24  and  C_45
REMARK   30  A    between atoms: C_25  and  C_27
REMARK   31  A    between atoms: O_28  and  C_69
REMARK   32  A    between atoms: O_28  and  C_70
REMARK   33  A    between atoms: C_29  and  C_31
REMARK   34  A    between atoms: O_30  and  C_71
REMARK   35  A    between atoms: O_30  and  C_72
REMARK   36  A    between atoms: O_32  and  C_73
REMARK   37  A    between atoms: O_32  and  C_74
REMARK   38  A    between atoms: C_33  and  C_35
REMARK   39  A    between atoms: O_34  and  C_75
REMARK   40  A    between atoms: O_34  and  C_76
REMARK   41  A    between atoms: O_36  and  C_77
REMARK   42  A    between atoms: O_36  and  C_78
REMARK   43  A    between atoms: C_37  and  C_39
REMARK   44  A    between atoms: O_40  and  C_80
REMARK   45  A    between atoms: O_40  and  C_81
REMARK   46  A    between atoms: C_41  and  C_43
REMARK   47  A    between atoms: O_42  and  C_82
REMARK   48  A    between atoms: O_42  and  C_83
REMARK   49  A    between atoms: O_44  and  C_84
REMARK   50  A    between atoms: O_44  and  C_85
REMARK   51  A    between atoms: C_45  and  C_47
REMARK   52  A    between atoms: O_46  and  C_86
REMARK   53  A    between atoms: O_46  and  C_87
REMARK   54  A    between atoms: C_47  and  C_49
REMARK   55  A    between atoms: O_48  and  C_88
REMARK   56  A    between atoms: O_48  and  C_89
REMARK   57  A    between atoms: C_49  and  C_51
REMARK   58  A    between atoms: C_51  and  C_53
REMARK   59  A    between atoms: C_53  and  C_54
REMARK   60  A    between atoms: C_54  and  C_55
REMARK   61  A    between atoms: C_55  and  C_56
REMARK   62  A    between atoms: C_56  and  C_57
REMARK   63  A    between atoms: C_57  and  C_58
REMARK   64  A    between atoms: C_58  and  C_59
REMARK   65  A    between atoms: C_59  and  C_60
REMARK   66  A    between atoms: C_60  and  C_61
REMARK   67  A    between atoms: C_61  and  C_62
REMARK   68  A    between atoms: C_62  and  C_63
REMARK   69  A    between atoms: C_63  and  C_64
REMARK   70  A    between atoms: C_64  and  C_65
REMARK   71  A    between atoms: C_67  and  C_68
REMARK   72  A    between atoms: C_70  and  C_71
REMARK   73  A    between atoms: C_72  and  C_73
REMARK   74  A    between atoms: C_74  and  C_75
REMARK   75  A    between atoms: C_76  and  C_77
REMARK   76  A    between atoms: C_78  and  C_79
REMARK   77  A    between atoms: C_81  and  C_82
REMARK   78  A    between atoms: C_83  and  C_84
REMARK   79  A    between atoms: C_85  and  C_86
REMARK   80  A    between atoms: C_87  and  C_88
REMARK   81  A    between atoms: C_89  and  C_90
REMARK                            x       y       z     vdW  Elec       q    Type
REMARK                         _______ _______ _______ _____ _____    ______ ____
ROOT
ATOM      1  C   UNL     1     -15.792   8.351  19.368  0.00  0.00    +0.000 C 
ENDROOT
BRANCH   1   2
ATOM      2  C   UNL     1     -15.693   8.628  21.013  0.00  0.00    +0.000 C 
BRANCH   2   4
ATOM      3  O   UNL     1     -13.329   8.632  20.529  0.00  0.00    +0.000 OA
ATOM      4  C   UNL     1     -14.311   9.018  21.425  0.00  0.00    +0.000 C 
ATOM      5  C   UNL     1     -13.789   8.212  22.646  0.00  0.00    +0.000 C 
ATOM      6  C   UNL     1     -12.259   8.456  22.491  0.00  0.00    +0.000 C 
ATOM      7  C   UNL     1     -12.054   8.594  21.042  0.00  0.00    +0.000 C 
BRANCH   6   8
ATOM      8  O   UNL     1     -11.594   7.273  22.908  0.00  0.00    +0.000 OA
BRANCH   8   9
ATOM      9  C   UNL     1     -10.618   6.763  21.969  0.00  0.00    +0.000 C 
BRANCH   9  10
ATOM     10  C   UNL     1      -9.540   6.036  22.728  0.00  0.00    +0.000 C 
BRANCH  10  11
ATOM     11  O   UNL     1      -9.455   4.702  22.263  0.00  0.00    +0.000 OA
BRANCH  11  12
ATOM     12  C   UNL     1      -8.248   4.475  21.560  0.00  0.00    +0.000 C 
BRANCH  12  13
ATOM     13  C   UNL     1      -7.080   5.229  22.151  0.00  0.00    +0.000 C 
BRANCH  13  14
ATOM     14  O   UNL     1      -6.248   4.263  22.803  0.00  0.00    +0.000 OA
BRANCH  14  15
ATOM     15  C   UNL     1      -5.052   4.040  22.131  0.00  0.00    +0.000 C 
BRANCH  15  16
ATOM     16  C   UNL     1      -4.262   5.371  22.013  0.00  0.00    +0.000 C 
BRANCH  16  17
ATOM     17  O   UNL     1      -2.922   5.043  22.001  0.00  0.00    +0.000 OA
BRANCH  17  18
ATOM     18  C   UNL     1      -2.516   4.301  23.166  0.00  0.00    +0.000 C 
BRANCH  18  19
ATOM     19  C   UNL     1      -1.886   5.303  24.133  0.00  0.00    +0.000 C 
BRANCH  19  20
ATOM     20  O   UNL     1      -0.729   5.828  23.607  0.00  0.00    +0.000 OA
BRANCH  20  21
ATOM     21  C   UNL     1       0.389   5.504  24.389  0.00  0.00    +0.000 C 
BRANCH  21  23
ATOM     22  O   UNL     1       0.500   6.751  26.414  0.00  0.00    +0.000 OA
ATOM     23  C   UNL     1       0.955   6.733  25.043  0.00  0.00    +0.000 C 
ENDBRANCH  21  23
ENDBRANCH  20  21
ENDBRANCH  19  20
ENDBRANCH  18  19
ENDBRANCH  17  18
ENDBRANCH  16  17
ENDBRANCH  15  16
ENDBRANCH  14  15
ENDBRANCH  13  14
ENDBRANCH  12  13
ENDBRANCH  11  12
ENDBRANCH  10  11
ENDBRANCH   9  10
ENDBRANCH   8   9
ENDBRANCH   6   8
BRANCH   5  24
ATOM     24  O   UNL     1     -14.270   8.771  23.847  0.00  0.00    +0.000 OA
BRANCH  24  25
ATOM     25  C   UNL     1     -13.893  10.124  24.032  0.00  0.00    +0.000 C 
BRANCH  25  26
ATOM     26  C   UNL     1     -13.260  10.361  25.387  0.00  0.00    +0.000 C 
BRANCH  26  27
ATOM     27  O   UNL     1     -14.284  10.361  26.360  0.00  0.00    +0.000 OA
BRANCH  27  28
ATOM     28  C   UNL     1     -14.032  11.255  27.431  0.00  0.00    +0.000 C 
BRANCH  28  29
ATOM     29  C   UNL     1     -12.612  11.780  27.427  0.00  0.00    +0.000 C 
BRANCH  29  30
ATOM     30  O   UNL     1     -11.865  11.174  28.461  0.00  0.00    +0.000 OA
BRANCH  30  31
ATOM     31  C   UNL     1     -12.673  10.513  29.443  0.00  0.00    +0.000 C 
BRANCH  31  32
ATOM     32  C   UNL     1     -11.785   9.921  30.534  0.00  0.00    +0.000 C 
BRANCH  32  33
ATOM     33  O   UNL     1     -10.459  10.407  30.462  0.00  0.00    +0.000 OA
BRANCH  33  34
ATOM     34  C   UNL     1      -9.489   9.389  30.555  0.00  0.00    +0.000 C 
BRANCH  34  35
ATOM     35  C   UNL     1      -9.310   8.652  29.209  0.00  0.00    +0.000 C 
BRANCH  35  36
ATOM     36  O   UNL     1      -7.976   8.233  29.101  0.00  0.00    +0.000 OA
BRANCH  36  37
ATOM     37  C   UNL     1      -7.127   9.205  29.687  0.00  0.00    +0.000 C 
BRANCH  37  39
ATOM     38  O   UNL     1      -5.159  10.427  29.072  0.00  0.00    +0.000 OA
ATOM     39  C   UNL     1      -6.458  10.032  28.630  0.00  0.00    +0.000 C 
ENDBRANCH  37  39
ENDBRANCH  36  37
ENDBRANCH  35  36
ENDBRANCH  34  35
ENDBRANCH  33  34
ENDBRANCH  32  33
ENDBRANCH  31  32
ENDBRANCH  30  31
ENDBRANCH  29  30
ENDBRANCH  28  29
ENDBRANCH  27  28
ENDBRANCH  26  27
ENDBRANCH  25  26
ENDBRANCH  24  25
ENDBRANCH   5  24
ENDBRANCH   2   4
ENDBRANCH   1   2
BRANCH   1  40
ATOM     40  O   UNL     1     -16.766   9.258  18.836  0.00  0.00    +0.000 OA
BRANCH  40  41
ATOM     41  C   UNL     1     -17.996   9.146  19.530  0.00  0.00    +0.000 C 
BRANCH  41  42
ATOM     42  C   UNL     1     -19.128   9.841  18.768  0.00  0.00    +0.000 C 
BRANCH  42  43
ATOM     43  O   UNL     1     -20.286   9.777  19.517  0.00  0.00    +0.000 OA
BRANCH  43  44
ATOM     44  C   UNL     1     -21.083  10.957  19.422  0.00  0.00    +0.000 C 
BRANCH  44  45
ATOM     45  C   UNL     1     -22.416  10.611  18.782  0.00  0.00    +0.000 C 
BRANCH  45  46
ATOM     46  O   UNL     1     -22.274   9.457  18.016  0.00  0.00    +0.000 OA
BRANCH  46  47
ATOM     47  C   UNL     1     -23.430   8.678  18.045  0.00  0.00    +0.000 C 
BRANCH  47  48
ATOM     48  C   UNL     1     -23.051   7.230  18.363  0.00  0.00    +0.000 C 
BRANCH  48  49
ATOM     49  O   UNL     1     -23.604   6.393  17.378  0.00  0.00    +0.000 OA
BRANCH  49  50
ATOM     50  C   UNL     1     -23.465   5.017  17.652  0.00  0.00    +0.000 C 
BRANCH  50  51
ATOM     51  C   UNL     1     -24.666   4.572  18.464  0.00  0.00    +0.000 C 
BRANCH  51  52
ATOM     52  O   UNL     1     -24.156   3.828  19.587  0.00  0.00    +0.000 OA
BRANCH  52  53
ATOM     53  C   UNL     1     -22.761   3.537  19.464  0.00  0.00    +0.000 C 
BRANCH  53  54
ATOM     54  C   UNL     1     -22.390   2.293  20.189  0.00  0.00    +0.000 C 
ATOM     55  O   UNL     1     -21.555   1.513  19.352  0.00  0.00    +0.000 OA
ENDBRANCH  53  54
ENDBRANCH  52  53
ENDBRANCH  51  52
ENDBRANCH  50  51
ENDBRANCH  49  50
ENDBRANCH  48  49
ENDBRANCH  47  48
ENDBRANCH  46  47
ENDBRANCH  45  46
ENDBRANCH  44  45
ENDBRANCH  43  44
ENDBRANCH  42  43
ENDBRANCH  41  42
ENDBRANCH  40  41
ENDBRANCH   1  40
BRANCH   1  56
ATOM     56  C   UNL     1     -16.197   6.921  19.188  0.00  0.00    +0.000 C 
BRANCH  56  57
ATOM     57  O   UNL     1     -16.083   6.326  20.412  0.00  0.00    +0.000 OA
BRANCH  57  58
ATOM     58  C   UNL     1     -15.376   5.061  20.257  0.00  0.00    +0.000 C 
BRANCH  58  59
ATOM     59  C   UNL     1     -13.896   5.262  20.511  0.00  0.00    +0.000 C 
BRANCH  59  60
ATOM     60  O   UNL     1     -13.169   4.662  19.468  0.00  0.00    +0.000 OA
BRANCH  60  61
ATOM     61  C   UNL     1     -13.990   3.859  18.657  0.00  0.00    +0.000 C 
BRANCH  61  62
ATOM     62  C   UNL     1     -13.417   3.902  17.233  0.00  0.00    +0.000 C 
BRANCH  62  63
ATOM     63  O   UNL     1     -14.302   4.682  16.408  0.00  0.00    +0.000 OA
BRANCH  63  64
ATOM     64  C   UNL     1     -13.875   4.683  15.040  0.00  0.00    +0.000 C 
BRANCH  64  65
ATOM     65  C   UNL     1     -12.398   4.347  14.948  0.00  0.00    +0.000 C 
BRANCH  65  66
ATOM     66  O   UNL     1     -12.254   3.236  14.055  0.00  0.00    +0.000 OA
BRANCH  66  67
ATOM     67  C   UNL     1     -10.976   2.575  14.209  0.00  0.00    +0.000 C 
BRANCH  67  68
ATOM     68  C   UNL     1     -10.403   2.358  12.778  0.00  0.00    +0.000 C 
BRANCH  68  69
ATOM     69  O   UNL     1      -9.089   2.901  12.701  0.00  0.00    +0.000 OA
BRANCH  69  70
ATOM     70  C   UNL     1      -9.085   4.321  12.528  0.00  0.00    +0.000 C 
BRANCH  70  71
ATOM     71  C   UNL     1      -9.984   4.709  11.398  0.00  0.00    +0.000 C 
BRANCH  71  72
ATOM     72  O   UNL     1      -9.227   5.309  10.382  0.00  0.00    +0.000 OA
BRANCH  72  74
ATOM     73  O   UNL     1      -9.146   5.310   8.169  0.00  0.00    +0.000 OA
ATOM     74  C   UNL     1      -9.739   5.036   9.142  0.00  0.00    +0.000 C 
BRANCH  74  75
ATOM     75  C   UNL     1     -11.096   4.413   9.084  0.00  0.00    +0.000 C 
BRANCH  75  76
ATOM     76  C   UNL     1     -11.749   4.601   7.681  0.00  0.00    +0.000 C 
BRANCH  76  77
ATOM     77  C   UNL     1     -12.816   5.652   7.846  0.00  0.00    +0.000 C 
BRANCH  77  78
ATOM     78  C   UNL     1     -14.111   5.149   7.278  0.00  0.00    +0.000 C 
BRANCH  78  79
ATOM     79  C   UNL     1     -13.859   3.936   6.434  0.00  0.00    +0.000 C 
BRANCH  79  80
ATOM     80  C   UNL     1     -14.930   2.903   6.742  0.00  0.00    +0.000 C 
BRANCH  80  81
ATOM     81  C   UNL     1     -14.384   1.979   7.789  0.00  0.00    +0.000 C 
BRANCH  81  82
ATOM     82  C   UNL     1     -15.495   1.361   8.590  0.00  0.00    +0.000 C 
BRANCH  82  83
ATOM     83  C   UNL     1     -15.013   0.114   9.260  0.00  0.00    +0.000 C 
BRANCH  83  84
ATOM     84  C   UNL     1     -16.237  -0.698   9.665  0.00  0.00    +0.000 C 
BRANCH  84  85
ATOM     85  C   UNL     1     -17.203   0.205  10.358  0.00  0.00    +0.000 C 
BRANCH  85  86
ATOM     86  C   UNL     1     -16.886   0.180  11.858  0.00  0.00    +0.000 C 
BRANCH  86  87
ATOM     87  C   UNL     1     -16.443   1.566  12.295  0.00  0.00    +0.000 C 
BRANCH  87  88
ATOM     88  C   UNL     1     -15.037   1.432  12.846  0.00  0.00    +0.000 C 
BRANCH  88  89
ATOM     89  C   UNL     1     -14.794  -0.035  13.160  0.00  0.00    +0.000 C 
BRANCH  89  90
ATOM     90  C   UNL     1     -13.407  -0.223  13.697  0.00  0.00    +0.000 C 
ATOM     91  C   UNL     1     -13.423  -0.168  15.214  0.00  0.00    +0.000 C 
ENDBRANCH  89  90
ENDBRANCH  88  89
ENDBRANCH  87  88
ENDBRANCH  86  87
ENDBRANCH  85  86
ENDBRANCH  84  85
ENDBRANCH  83  84
ENDBRANCH  82  83
ENDBRANCH  81  82
ENDBRANCH  80  81
ENDBRANCH  79  80
ENDBRANCH  78  79
ENDBRANCH  77  78
ENDBRANCH  76  77
ENDBRANCH  75  76
ENDBRANCH  74  75
ENDBRANCH  72  74
ENDBRANCH  71  72
ENDBRANCH  70  71
ENDBRANCH  69  70
ENDBRANCH  68  69
ENDBRANCH  67  68
ENDBRANCH  66  67
ENDBRANCH  65  66
ENDBRANCH  64  65
ENDBRANCH  63  64
ENDBRANCH  62  63
ENDBRANCH  61  62
ENDBRANCH  60  61
ENDBRANCH  59  60
ENDBRANCH  58  59
ENDBRANCH  57  58
ENDBRANCH  56  57
ENDBRANCH   1  56
TORSDOF 81
ENDMDL
MODEL 9
REMARK VINA RESULT:      -6.2      1.444     11.455
REMARK  Name = human_CD1d_tween80_pred.rank_0
REMARK  81 active torsions:
REMARK  status: ('A' for Active; 'I' for Inactive)
REMARK    1  A    between atoms: C_1  and  C_3
REMARK    2  A    between atoms: C_3  and  O_4
REMARK    3  A    between atoms: O_4  and  C_5
REMARK    4  A    between atoms: C_5  and  C_7
REMARK    5  A    between atoms: O_6  and  C_7
REMARK    6  A    between atoms: O_6  and  C_9
REMARK    7  A    between atoms: O_8  and  C_11
REMARK    8  A    between atoms: O_8  and  C_13
REMARK    9  A    between atoms: C_9  and  C_11
REMARK   10  A    between atoms: O_10  and  C_15
REMARK   11  A    between atoms: O_10  and  C_17
REMARK   12  A    between atoms: O_12  and  C_19
REMARK   13  A    between atoms: O_12  and  C_21
REMARK   14  A    between atoms: C_13  and  C_15
REMARK   15  A    between atoms: O_14  and  C_23
REMARK   16  A    between atoms: O_14  and  C_25
REMARK   17  A    between atoms: O_16  and  C_27
REMARK   18  A    between atoms: O_16  and  C_29
REMARK   19  A    between atoms: C_17  and  C_19
REMARK   20  A    between atoms: O_18  and  C_31
REMARK   21  A    between atoms: O_18  and  C_33
REMARK   22  A    between atoms: O_20  and  C_35
REMARK   23  A    between atoms: O_20  and  C_37
REMARK   24  A    between atoms: C_21  and  C_23
REMARK   25  A    between atoms: C_21  and  C_67
REMARK   26  A    between atoms: O_22  and  C_39
REMARK   27  A    between atoms: O_22  and  C_41
REMARK   28  A    between atoms: O_24  and  C_43
REMARK   29  A    between atoms: O_24  and  C_45
REMARK   30  A    between atoms: C_25  and  C_27
REMARK   31  A    between atoms: O_28  and  C_69
REMARK   32  A    between atoms: O_28  and  C_70
REMARK   33  A    between atoms: C_29  and  C_31
REMARK   34  A    between atoms: O_30  and  C_71
REMARK   35  A    between atoms: O_30  and  C_72
REMARK   36  A    between atoms: O_32  and  C_73
REMARK   37  A    between atoms: O_32  and  C_74
REMARK   38  A    between atoms: C_33  and  C_35
REMARK   39  A    between atoms: O_34  and  C_75
REMARK   40  A    between atoms: O_34  and  C_76
REMARK   41  A    between atoms: O_36  and  C_77
REMARK   42  A    between atoms: O_36  and  C_78
REMARK   43  A    between atoms: C_37  and  C_39
REMARK   44  A    between atoms: O_40  and  C_80
REMARK   45  A    between atoms: O_40  and  C_81
REMARK   46  A    between atoms: C_41  and  C_43
REMARK   47  A    between atoms: O_42  and  C_82
REMARK   48  A    between atoms: O_42  and  C_83
REMARK   49  A    between atoms: O_44  and  C_84
REMARK   50  A    between atoms: O_44  and  C_85
REMARK   51  A    between atoms: C_45  and  C_47
REMARK   52  A    between atoms: O_46  and  C_86
REMARK   53  A    between atoms: O_46  and  C_87
REMARK   54  A    between atoms: C_47  and  C_49
REMARK   55  A    between atoms: O_48  and  C_88
REMARK   56  A    between atoms: O_48  and  C_89
REMARK   57  A    between atoms: C_49  and  C_51
REMARK   58  A    between atoms: C_51  and  C_53
REMARK   59  A    between atoms: C_53  and  C_54
REMARK   60  A    between atoms: C_54  and  C_55
REMARK   61  A    between atoms: C_55  and  C_56
REMARK   62  A    between atoms: C_56  and  C_57
REMARK   63  A    between atoms: C_57  and  C_58
REMARK   64  A    between atoms: C_58  and  C_59
REMARK   65  A    between atoms: C_59  and  C_60
REMARK   66  A    between atoms: C_60  and  C_61
REMARK   67  A    between atoms: C_61  and  C_62
REMARK   68  A    between atoms: C_62  and  C_63
REMARK   69  A    between atoms: C_63  and  C_64
REMARK   70  A    between atoms: C_64  and  C_65
REMARK   71  A    between atoms: C_67  and  C_68
REMARK   72  A    between atoms: C_70  and  C_71
REMARK   73  A    between atoms: C_72  and  C_73
REMARK   74  A    between atoms: C_74  and  C_75
REMARK   75  A    between atoms: C_76  and  C_77
REMARK   76  A    between atoms: C_78  and  C_79
REMARK   77  A    between atoms: C_81  and  C_82
REMARK   78  A    between atoms: C_83  and  C_84
REMARK   79  A    between atoms: C_85  and  C_86
REMARK   80  A    between atoms: C_87  and  C_88
REMARK   81  A    between atoms: C_89  and  C_90
REMARK                            x       y       z     vdW  Elec       q    Type
REMARK                         _______ _______ _______ _____ _____    ______ ____
ROOT
ATOM      1  C   UNL     1     -14.133   8.436  21.374  0.00  0.00    +0.000 C 
ENDROOT
BRANCH   1   2
ATOM      2  C   UNL     1     -15.024   9.573  20.534  0.00  0.00    +0.000 C 
BRANCH   2   4
ATOM      3  O   UNL     1     -16.729   9.087  18.897  0.00  0.00    +0.000 OA
ATOM      4  C   UNL     1     -16.405   9.085  20.242  0.00  0.00    +0.000 C 
ATOM      5  C   UNL     1     -17.511  10.071  20.710  0.00  0.00    +0.000 C 
ATOM      6  C   UNL     1     -18.703   9.563  19.847  0.00  0.00    +0.000 C 
ATOM      7  C   UNL     1     -18.076   9.050  18.621  0.00  0.00    +0.000 C 
BRANCH   6   8
ATOM      8  O   UNL     1     -19.482  10.694  19.489  0.00  0.00    +0.000 OA
BRANCH   8   9
ATOM      9  C   UNL     1     -20.676  10.392  18.729  0.00  0.00    +0.000 C 
BRANCH   9  10
ATOM     10  C   UNL     1     -21.824  10.182  19.680  0.00  0.00    +0.000 C 
BRANCH  10  11
ATOM     11  O   UNL     1     -22.735   9.254  19.120  0.00  0.00    +0.000 OA
BRANCH  11  12
ATOM     12  C   UNL     1     -22.198   8.633  17.968  0.00  0.00    +0.000 C 
BRANCH  12  13
ATOM     13  C   UNL     1     -23.180   7.705  17.295  0.00  0.00    +0.000 C 
BRANCH  13  14
ATOM     14  O   UNL     1     -24.047   7.203  18.318  0.00  0.00    +0.000 OA
BRANCH  14  15
ATOM     15  C   UNL     1     -23.754   5.894  18.679  0.00  0.00    +0.000 C 
BRANCH  15  16
ATOM     16  C   UNL     1     -23.324   5.088  17.424  0.00  0.00    +0.000 C 
BRANCH  16  17
ATOM     17  O   UNL     1     -24.425   4.364  17.013  0.00  0.00    +0.000 OA
BRANCH  17  18
ATOM     18  C   UNL     1     -24.104   3.006  16.664  0.00  0.00    +0.000 C 
BRANCH  18  19
ATOM     19  C   UNL     1     -22.581   2.917  16.579  0.00  0.00    +0.000 C 
BRANCH  19  20
ATOM     20  O   UNL     1     -22.190   2.375  15.376  0.00  0.00    +0.000 OA
BRANCH  20  21
ATOM     21  C   UNL     1     -23.053   2.749  14.336  0.00  0.00    +0.000 C 
BRANCH  21  23
ATOM     22  O   UNL     1     -23.988   0.656  13.690  0.00  0.00    +0.000 OA
ATOM     23  C   UNL     1     -23.080   1.696  13.263  0.00  0.00    +0.000 C 
ENDBRANCH  21  23
ENDBRANCH  20  21
ENDBRANCH  19  20
ENDBRANCH  18  19
ENDBRANCH  17  18
ENDBRANCH  16  17
ENDBRANCH  15  16
ENDBRANCH  14  15
ENDBRANCH  13  14
ENDBRANCH  12  13
ENDBRANCH  11  12
ENDBRANCH  10  11
ENDBRANCH   9  10
ENDBRANCH   8   9
ENDBRANCH   6   8
BRANCH   5  24
ATOM     24  O   UNL     1     -17.774   9.900  22.084  0.00  0.00    +0.000 OA
BRANCH  24  25
ATOM     25  C   UNL     1     -17.754  11.110  22.818  0.00  0.00    +0.000 C 
BRANCH  25  26
ATOM     26  C   UNL     1     -16.735  11.084  23.938  0.00  0.00    +0.000 C 
BRANCH  26  27
ATOM     27  O   UNL     1     -15.534  11.652  23.458  0.00  0.00    +0.000 OA
BRANCH  27  28
ATOM     28  C   UNL     1     -14.836  12.393  24.446  0.00  0.00    +0.000 C 
BRANCH  28  29
ATOM     29  C   UNL     1     -15.182  11.953  25.852  0.00  0.00    +0.000 C 
BRANCH  29  30
ATOM     30  O   UNL     1     -14.021  11.930  26.655  0.00  0.00    +0.000 OA
BRANCH  30  31
ATOM     31  C   UNL     1     -13.831  10.697  27.360  0.00  0.00    +0.000 C 
BRANCH  31  32
ATOM     32  C   UNL     1     -13.055   9.713  26.489  0.00  0.00    +0.000 C 
BRANCH  32  33
ATOM     33  O   UNL     1     -11.879   9.254  27.126  0.00  0.00    +0.000 OA
BRANCH  33  34
ATOM     34  C   UNL     1     -12.010   9.145  28.525  0.00  0.00    +0.000 C 
BRANCH  34  35
ATOM     35  C   UNL     1     -10.878   9.895  29.260  0.00  0.00    +0.000 C 
BRANCH  35  36
ATOM     36  O   UNL     1      -9.646   9.443  28.767  0.00  0.00    +0.000 OA
BRANCH  36  37
ATOM     37  C   UNL     1      -8.728  10.522  28.729  0.00  0.00    +0.000 C 
BRANCH  37  39
ATOM     38  O   UNL     1      -6.454   9.884  28.318  0.00  0.00    +0.000 OA
ATOM     39  C   UNL     1      -7.417  10.125  29.343  0.00  0.00    +0.000 C 
ENDBRANCH  37  39
ENDBRANCH  36  37
ENDBRANCH  35  36
ENDBRANCH  34  35
ENDBRANCH  33  34
ENDBRANCH  32  33
ENDBRANCH  31  32
ENDBRANCH  30  31
ENDBRANCH  29  30
ENDBRANCH  28  29
ENDBRANCH  27  28
ENDBRANCH  26  27
ENDBRANCH  25  26
ENDBRANCH  24  25
ENDBRANCH   5  24
ENDBRANCH   2   4
ENDBRANCH   1   2
BRANCH   1  40
ATOM     40  O   UNL     1     -12.836   8.372  20.768  0.00  0.00    +0.000 OA
BRANCH  40  41
ATOM     41  C   UNL     1     -11.821   8.690  21.703  0.00  0.00    +0.000 C 
BRANCH  41  42
ATOM     42  C   UNL     1     -11.234   7.425  22.336  0.00  0.00    +0.000 C 
BRANCH  42  43
ATOM     43  O   UNL     1     -10.132   7.022  21.608  0.00  0.00    +0.000 OA
BRANCH  43  44
ATOM     44  C   UNL     1      -9.969   5.605  21.572  0.00  0.00    +0.000 C 
BRANCH  44  45
ATOM     45  C   UNL     1      -8.492   5.268  21.678  0.00  0.00    +0.000 C 
BRANCH  45  46
ATOM     46  O   UNL     1      -8.022   5.640  22.935  0.00  0.00    +0.000 OA
BRANCH  46  47
ATOM     47  C   UNL     1      -6.695   5.258  23.119  0.00  0.00    +0.000 C 
BRANCH  47  48
ATOM     48  C   UNL     1      -6.005   6.269  24.037  0.00  0.00    +0.000 C 
BRANCH  48  49
ATOM     49  O   UNL     1      -4.634   6.299  23.726  0.00  0.00    +0.000 OA
BRANCH  49  50
ATOM     50  C   UNL     1      -4.321   5.764  22.460  0.00  0.00    +0.000 C 
BRANCH  50  51
ATOM     51  C   UNL     1      -3.077   4.909  22.602  0.00  0.00    +0.000 C 
BRANCH  51  52
ATOM     52  O   UNL     1      -2.016   5.784  23.030  0.00  0.00    +0.000 OA
BRANCH  52  53
ATOM     53  C   UNL     1      -1.230   5.219  24.084  0.00  0.00    +0.000 C 
BRANCH  53  54
ATOM     54  C   UNL     1      -0.256   6.199  24.632  0.00  0.00    +0.000 C 
ATOM     55  O   UNL     1       1.050   5.669  24.488  0.00  0.00    +0.000 OA
ENDBRANCH  53  54
ENDBRANCH  52  53
ENDBRANCH  51  52
ENDBRANCH  50  51
ENDBRANCH  49  50
ENDBRANCH  48  49
ENDBRANCH  47  48
ENDBRANCH  46  47
ENDBRANCH  45  46
ENDBRANCH  44  45
ENDBRANCH  43  44
ENDBRANCH  42  43
ENDBRANCH  41  42
ENDBRANCH  40  41
ENDBRANCH   1  40
BRANCH   1  56
ATOM     56  C   UNL     1     -14.869   7.136  21.267  0.00  0.00    +0.000 C 
BRANCH  56  57
ATOM     57  O   UNL     1     -14.153   6.354  20.406  0.00  0.00    +0.000 OA
BRANCH  57  58
ATOM     58  C   UNL     1     -15.075   5.703  19.483  0.00  0.00    +0.000 C 
BRANCH  58  59
ATOM     59  C   UNL     1     -14.654   4.264  19.261  0.00  0.00    +0.000 C 
BRANCH  59  60
ATOM     60  O   UNL     1     -14.671   3.991  17.882  0.00  0.00    +0.000 OA
BRANCH  60  61
ATOM     61  C   UNL     1     -14.406   5.143  17.121  0.00  0.00    +0.000 C 
BRANCH  61  62
ATOM     62  C   UNL     1     -13.849   4.685  15.766  0.00  0.00    +0.000 C 
BRANCH  62  63
ATOM     63  O   UNL     1     -13.198   3.413  15.946  0.00  0.00    +0.000 OA
BRANCH  63  64
ATOM     64  C   UNL     1     -11.784   3.517  15.741  0.00  0.00    +0.000 C 
BRANCH  64  65
ATOM     65  C   UNL     1     -11.488   3.971  14.323  0.00  0.00    +0.000 C 
BRANCH  65  66
ATOM     66  O   UNL     1     -11.841   2.902  13.437  0.00  0.00    +0.000 OA
BRANCH  66  67
ATOM     67  C   UNL     1     -11.072   2.936  12.211  0.00  0.00    +0.000 C 
BRANCH  67  68
ATOM     68  C   UNL     1      -9.574   2.796  12.612  0.00  0.00    +0.000 C 
BRANCH  68  69
ATOM     69  O   UNL     1      -8.762   3.508  11.685  0.00  0.00    +0.000 OA
BRANCH  69  70
ATOM     70  C   UNL     1      -9.166   4.871  11.526  0.00  0.00    +0.000 C 
BRANCH  70  71
ATOM     71  C   UNL     1      -8.925   5.324  10.122  0.00  0.00    +0.000 C 
BRANCH  71  72
ATOM     72  O   UNL     1      -9.308   4.311   9.231  0.00  0.00    +0.000 OA
BRANCH  72  74
ATOM     73  O   UNL     1      -9.771   5.368   7.340  0.00  0.00    +0.000 OA
ATOM     74  C   UNL     1     -10.167   4.780   8.273  0.00  0.00    +0.000 C 
BRANCH  74  75
ATOM     75  C   UNL     1     -11.627   4.545   8.488  0.00  0.00    +0.000 C 
BRANCH  75  76
ATOM     76  C   UNL     1     -12.472   5.784   8.062  0.00  0.00    +0.000 C 
BRANCH  76  77
ATOM     77  C   UNL     1     -13.662   5.250   7.310  0.00  0.00    +0.000 C 
BRANCH  77  78
ATOM     78  C   UNL     1     -13.258   4.035   6.526  0.00  0.00    +0.000 C 
BRANCH  78  79
ATOM     79  C   UNL     1     -14.470   3.217   6.194  0.00  0.00    +0.000 C 
BRANCH  79  80
ATOM     80  C   UNL     1     -15.276   3.009   7.465  0.00  0.00    +0.000 C 
BRANCH  80  81
ATOM     81  C   UNL     1     -14.639   1.886   8.229  0.00  0.00    +0.000 C 
BRANCH  81  82
ATOM     82  C   UNL     1     -15.458   1.528   9.437  0.00  0.00    +0.000 C 
BRANCH  82  83
ATOM     83  C   UNL     1     -16.524   0.548   9.061  0.00  0.00    +0.000 C 
BRANCH  83  84
ATOM     84  C   UNL     1     -16.898  -0.233  10.315  0.00  0.00    +0.000 C 
BRANCH  84  85
ATOM     85  C   UNL     1     -16.884   0.698  11.482  0.00  0.00    +0.000 C 
BRANCH  85  86
ATOM     86  C   UNL     1     -16.156   0.001  12.637  0.00  0.00    +0.000 C 
BRANCH  86  87
ATOM     87  C   UNL     1     -14.915   0.802  12.996  0.00  0.00    +0.000 C 
BRANCH  87  88
ATOM     88  C   UNL     1     -13.721  -0.106  12.776  0.00  0.00    +0.000 C 
BRANCH  88  89
ATOM     89  C   UNL     1     -13.501  -0.909  14.046  0.00  0.00    +0.000 C 
BRANCH  89  90
ATOM     90  C   UNL     1     -12.862  -0.050  15.096  0.00  0.00    +0.000 C 
ATOM     91  C   UNL     1     -13.460  -0.356  16.457  0.00  0.00    +0.000 C 
ENDBRANCH  89  90
ENDBRANCH  88  89
ENDBRANCH  87  88
ENDBRANCH  86  87
ENDBRANCH  85  86
ENDBRANCH  84  85
ENDBRANCH  83  84
ENDBRANCH  82  83
ENDBRANCH  81  82
ENDBRANCH  80  81
ENDBRANCH  79  80
ENDBRANCH  78  79
ENDBRANCH  77  78
ENDBRANCH  76  77
ENDBRANCH  75  76
ENDBRANCH  74  75
ENDBRANCH  72  74
ENDBRANCH  71  72
ENDBRANCH  70  71
ENDBRANCH  69  70
ENDBRANCH  68  69
ENDBRANCH  67  68
ENDBRANCH  66  67
ENDBRANCH  65  66
ENDBRANCH  64  65
ENDBRANCH  63  64
ENDBRANCH  62  63
ENDBRANCH  61  62
ENDBRANCH  60  61
ENDBRANCH  59  60
ENDBRANCH  58  59
ENDBRANCH  57  58
ENDBRANCH  56  57
ENDBRANCH   1  56
TORSDOF 81
ENDMDL
