human_CD1d_SDS_pred.rank_0
  PyMOL3.1          3D                             0

 17 16  0  0  0  0  0  0  0  0999 V2000
  -21.4780   -4.0040    7.7700 C   0  0  0  0  0  0  0  0  0  0  0  0
  -16.5590  -15.8850    7.7520 O   0  0  0  0  0  0  0  0  0  0  0  0
  -15.9290  -17.2710    8.1770 S   0  0  0  0  0  0  0  0  0  0  0  0
  -20.8190   -4.7870    8.8790 C   0  0  0  0  0  0  0  0  0  0  0  0
  -14.7910  -17.0140    9.0470 O   0  0  0  0  0  0  0  0  0  0  0  0
  -19.6660   -5.6410    8.3780 C   0  0  0  0  0  0  0  0  0  0  0  0
  -16.8990  -18.0650    8.8480 O   0  5  0  0  0  0  0  0  0  0  0  0
  -19.0640   -6.4750    9.4800 C   0  0  0  0  0  0  0  0  0  0  0  0
  -15.4820  -17.9440    6.9100 O   0  0  0  0  0  0  0  0  0  0  0  0
  -18.0120   -7.4290    8.9270 C   0  0  0  0  0  0  0  0  0  0  0  0
  -17.5570   -8.4540    9.9570 C   0  0  0  0  0  0  0  0  0  0  0  0
  -16.9710   -9.6970    9.2830 C   0  0  0  0  0  0  0  0  0  0  0  0
  -16.5850  -10.7820   10.3210 C   0  0  0  0  0  0  0  0  0  0  0  0
  -17.2830  -12.0910   10.0570 C   0  0  0  0  0  0  0  0  0  0  0  0
  -16.7370  -12.7980    8.8180 C   0  0  0  0  0  0  0  0  0  0  0  0
  -17.7290  -13.8500    8.2810 C   0  0  0  0  0  0  0  0  0  0  0  0
  -17.3350  -15.2410    8.7330 C   0  0  0  0  0  0  0  0  0  0  0  0
  1  4  1  0  0  0  0
  2  3  1  0  0  0  0
  3  5  1  0  0  0  0
  3  7  1  0  0  0  0
  3  9  2  0  0  0  0
  4  6  1  0  0  0  0
  6  8  1  0  0  0  0
  8 10  1  0  0  0  0
 10 11  1  0  0  0  0
 11 12  1  0  0  0  0
 12 13  1  0  0  0  0
 13 14  1  0  0  0  0
 14 15  1  0  0  0  0
 15 16  1  0  0  0  0
 16 17  1  0  0  0  0
  2 17  1  0  0  0  0
M  END
$$$$
