human_CD1d_LDAO_pred.rank_0
  PyMOL3.1          3D                             0

 16 15  0  0  0  0  0  0  0  0999 V2000
   11.4350  -21.1050    2.3400 C   0  0  0  0  0  0  0  0  0  0  0  0
    3.3250  -21.3450   13.3520 N   0  0  0  0  0  0  0  0  0  0  0  0
    3.9310  -20.2000   13.6610 O   0  0  0  0  0  0  0  0  0  0  0  0
    9.9910  -21.5980    2.3640 C   0  0  0  0  0  0  0  0  0  0  0  0
    9.2680  -21.1430    3.6100 C   0  0  0  0  0  0  0  0  0  0  0  0
    7.8350  -21.6960    3.6730 C   0  0  0  0  0  0  0  0  0  0  0  0
    7.1340  -21.2860    4.9780 C   0  0  0  0  0  0  0  0  0  0  0  0
    5.7110  -21.8320    5.0520 C   0  0  0  0  0  0  0  0  0  0  0  0
    4.9680  -21.3260    6.3230 C   0  0  0  0  0  0  0  0  0  0  0  0
    5.3490  -22.1070    7.6070 C   0  0  0  0  0  0  0  0  0  0  0  0
    4.6580  -21.5380    8.8600 C   0  0  0  0  0  0  0  0  0  0  0  0
    5.0990  -22.2810   10.1270 C   0  0  0  0  0  0  0  0  0  0  0  0
    4.8390  -21.4670   11.4110 C   0  0  0  0  0  0  0  0  0  0  0  0
    3.3920  -21.5970   11.8910 C   0  0  0  0  0  0  0  0  0  0  0  0
    1.9020  -21.2440   13.7270 C   0  0  0  0  0  0  0  0  0  0  0  0
    3.9370  -22.4450   14.0730 C   0  0  0  0  0  0  0  0  0  0  0  0
  1  4  1  0  0  0  0
  2  3  1  0  0  0  0
  2 15  1  0  0  0  0
  2 16  1  0  0  0  0
  4  5  1  0  0  0  0
  5  6  1  0  0  0  0
  6  7  1  0  0  0  0
  7  8  1  0  0  0  0
  8  9  1  0  0  0  0
  9 10  1  0  0  0  0
 10 11  1  0  0  0  0
 11 12  1  0  0  0  0
 12 13  1  0  0  0  0
 13 14  1  0  0  0  0
  2 14  1  0  0  0  0
M  END
$$$$
