REMARK  Name = human_CD1d_SDS_pred.rank_0
REMARK  12 active torsions:
REMARK  status: ('A' for Active; 'I' for Inactive)
REMARK    1  A    between atoms: O_2  and  S_3
REMARK    2  A    between atoms: O_2  and  C_17
REMARK    3  A    between atoms: C_4  and  C_6
REMARK    4  A    between atoms: C_6  and  C_8
REMARK    5  A    between atoms: C_8  and  C_10
REMARK    6  A    between atoms: C_10  and  C_11
REMARK    7  A    between atoms: C_11  and  C_12
REMARK    8  A    between atoms: C_12  and  C_13
REMARK    9  A    between atoms: C_13  and  C_14
REMARK   10  A    between atoms: C_14  and  C_15
REMARK   11  A    between atoms: C_15  and  C_16
REMARK   12  A    between atoms: C_16  and  C_17
REMARK                            x       y       z     vdW  Elec       q    Type
REMARK                         _______ _______ _______ _____ _____    ______ ____
ROOT
ATOM      1  C   UNL     1     -17.283 -12.091  10.057  0.00  0.00    +0.000 C 
ENDROOT
BRANCH   1   2
ATOM      2  C   UNL     1     -16.585 -10.782  10.321  0.00  0.00    +0.000 C 
BRANCH   2   3
ATOM      3  C   UNL     1     -16.971  -9.697   9.283  0.00  0.00    +0.000 C 
BRANCH   3   4
ATOM      4  C   UNL     1     -17.557  -8.454   9.957  0.00  0.00    +0.000 C 
BRANCH   4   5
ATOM      5  C   UNL     1     -18.012  -7.429   8.927  0.00  0.00    +0.000 C 
BRANCH   5   6
ATOM      6  C   UNL     1     -19.064  -6.475   9.480  0.00  0.00    +0.000 C 
BRANCH   6   7
ATOM      7  C   UNL     1     -19.666  -5.641   8.378  0.00  0.00    +0.000 C 
BRANCH   7   9
ATOM      8  C   UNL     1     -21.478  -4.004   7.770  0.00  0.00    +0.000 C 
ATOM      9  C   UNL     1     -20.819  -4.787   8.879  0.00  0.00    +0.000 C 
ENDBRANCH   7   9
ENDBRANCH   6   7
ENDBRANCH   5   6
ENDBRANCH   4   5
ENDBRANCH   3   4
ENDBRANCH   2   3
ENDBRANCH   1   2
BRANCH   1  10
ATOM     10  C   UNL     1     -16.737 -12.798   8.818  0.00  0.00    +0.000 C 
BRANCH  10  11
ATOM     11  C   UNL     1     -17.729 -13.850   8.281  0.00  0.00    +0.000 C 
BRANCH  11  12
ATOM     12  C   UNL     1     -17.335 -15.241   8.733  0.00  0.00    +0.000 C 
BRANCH  12  13
ATOM     13  O   UNL     1     -16.559 -15.885   7.752  0.00  0.00    +0.000 OA
BRANCH  13  14
ATOM     14  S   UNL     1     -15.929 -17.271   8.177  0.00  0.00    +0.000 S 
ATOM     15  O   UNL     1     -14.791 -17.014   9.047  0.00  0.00    +0.000 OA
ATOM     16  O   UNL     1     -16.899 -18.065   8.848  0.00  0.00    +0.000 OA
ATOM     17  O   UNL     1     -15.482 -17.944   6.910  0.00  0.00    +0.000 OA
ENDBRANCH  13  14
ENDBRANCH  12  13
ENDBRANCH  11  12
ENDBRANCH  10  11
ENDBRANCH   1  10
TORSDOF 12
