MODEL 1
REMARK VINA RESULT:      -6.3      0.000      0.000
REMARK  Name = human_CD1d_SDS_pred.rank_0
REMARK  12 active torsions:
REMARK  status: ('A' for Active; 'I' for Inactive)
REMARK    1  A    between atoms: O_2  and  S_3
REMARK    2  A    between atoms: O_2  and  C_17
REMARK    3  A    between atoms: C_4  and  C_6
REMARK    4  A    between atoms: C_6  and  C_8
REMARK    5  A    between atoms: C_8  and  C_10
REMARK    6  A    between atoms: C_10  and  C_11
REMARK    7  A    between atoms: C_11  and  C_12
REMARK    8  A    between atoms: C_12  and  C_13
REMARK    9  A    between atoms: C_13  and  C_14
REMARK   10  A    between atoms: C_14  and  C_15
REMARK   11  A    between atoms: C_15  and  C_16
REMARK   12  A    between atoms: C_16  and  C_17
REMARK                            x       y       z     vdW  Elec       q    Type
REMARK                         _______ _______ _______ _____ _____    ______ ____
ROOT
ATOM      1  C   UNL     1      -5.054   3.370  22.766  0.00  0.00    +0.000 C 
ENDROOT
BRANCH   1   2
ATOM      2  C   UNL     1      -4.783   4.244  21.568  0.00  0.00    +0.000 C 
BRANCH   2   3
ATOM      3  C   UNL     1      -3.454   5.030  21.710  0.00  0.00    +0.000 C 
BRANCH   3   4
ATOM      4  C   UNL     1      -2.495   4.346  22.687  0.00  0.00    +0.000 C 
BRANCH   4   5
ATOM      5  C   UNL     1      -1.697   5.368  23.485  0.00  0.00    +0.000 C 
BRANCH   5   6
ATOM      6  C   UNL     1      -2.499   6.629  23.783  0.00  0.00    +0.000 C 
BRANCH   6   7
ATOM      7  C   UNL     1      -1.586   7.774  24.143  0.00  0.00    +0.000 C 
BRANCH   7   9
ATOM      8  C   UNL     1       0.777   8.509  23.688  0.00  0.00    +0.000 C 
ATOM      9  C   UNL     1      -0.122   7.368  24.096  0.00  0.00    +0.000 C 
ENDBRANCH   7   9
ENDBRANCH   6   7
ENDBRANCH   5   6
ENDBRANCH   4   5
ENDBRANCH   3   4
ENDBRANCH   2   3
ENDBRANCH   1   2
BRANCH   1  10
ATOM     10  C   UNL     1      -6.407   2.667  22.675  0.00  0.00    +0.000 C 
BRANCH  10  11
ATOM     11  C   UNL     1      -7.126   2.988  21.348  0.00  0.00    +0.000 C 
BRANCH  11  12
ATOM     12  C   UNL     1      -8.471   3.634  21.608  0.00  0.00    +0.000 C 
BRANCH  12  13
ATOM     13  O   UNL     1      -8.457   4.351  22.818  0.00  0.00    +0.000 OA
BRANCH  13  14
ATOM     14  S   UNL     1      -8.536   5.924  22.683  0.00  0.00    +0.000 S 
ATOM     15  O   UNL     1      -9.281   6.448  23.818  0.00  0.00    +0.000 OA
ATOM     16  O   UNL     1      -7.228   6.480  22.648  0.00  0.00    +0.000 OA
ATOM     17  O   UNL     1      -9.264   6.207  21.400  0.00  0.00    +0.000 OA
ENDBRANCH  13  14
ENDBRANCH  12  13
ENDBRANCH  11  12
ENDBRANCH  10  11
ENDBRANCH   1  10
TORSDOF 12
ENDMDL
MODEL 2
REMARK VINA RESULT:      -6.3      1.759      3.059
REMARK  Name = human_CD1d_SDS_pred.rank_0
REMARK  12 active torsions:
REMARK  status: ('A' for Active; 'I' for Inactive)
REMARK    1  A    between atoms: O_2  and  S_3
REMARK    2  A    between atoms: O_2  and  C_17
REMARK    3  A    between atoms: C_4  and  C_6
REMARK    4  A    between atoms: C_6  and  C_8
REMARK    5  A    between atoms: C_8  and  C_10
REMARK    6  A    between atoms: C_10  and  C_11
REMARK    7  A    between atoms: C_11  and  C_12
REMARK    8  A    between atoms: C_12  and  C_13
REMARK    9  A    between atoms: C_13  and  C_14
REMARK   10  A    between atoms: C_14  and  C_15
REMARK   11  A    between atoms: C_15  and  C_16
REMARK   12  A    between atoms: C_16  and  C_17
REMARK                            x       y       z     vdW  Elec       q    Type
REMARK                         _______ _______ _______ _____ _____    ______ ____
ROOT
ATOM      1  C   UNL     1      -2.811   4.789  22.933  0.00  0.00    +0.000 C 
ENDROOT
BRANCH   1   2
ATOM      2  C   UNL     1      -2.826   4.565  24.423  0.00  0.00    +0.000 C 
BRANCH   2   3
ATOM      3  C   UNL     1      -1.395   4.454  25.010  0.00  0.00    +0.000 C 
BRANCH   3   4
ATOM      4  C   UNL     1      -1.166   5.467  26.133  0.00  0.00    +0.000 C 
BRANCH   4   5
ATOM      5  C   UNL     1       0.151   6.210  25.948  0.00  0.00    +0.000 C 
BRANCH   5   6
ATOM      6  C   UNL     1       0.713   6.056  24.540  0.00  0.00    +0.000 C 
BRANCH   6   7
ATOM      7  C   UNL     1       0.426   7.281  23.709  0.00  0.00    +0.000 C 
BRANCH   7   9
ATOM      8  C   UNL     1       1.388   9.489  24.438  0.00  0.00    +0.000 C 
ATOM      9  C   UNL     1       0.240   8.519  24.571  0.00  0.00    +0.000 C 
ENDBRANCH   7   9
ENDBRANCH   6   7
ENDBRANCH   5   6
ENDBRANCH   4   5
ENDBRANCH   3   4
ENDBRANCH   2   3
ENDBRANCH   1   2
BRANCH   1  10
ATOM     10  C   UNL     1      -4.057   4.230  22.251  0.00  0.00    +0.000 C 
BRANCH  10  11
ATOM     11  C   UNL     1      -5.084   3.713  23.280  0.00  0.00    +0.000 C 
BRANCH  11  12
ATOM     12  C   UNL     1      -5.986   2.666  22.661  0.00  0.00    +0.000 C 
BRANCH  12  13
ATOM     13  O   UNL     1      -7.326   3.095  22.662  0.00  0.00    +0.000 OA
BRANCH  13  14
ATOM     14  S   UNL     1      -7.812   3.829  21.349  0.00  0.00    +0.000 S 
ATOM     15  O   UNL     1      -6.904   3.485  20.264  0.00  0.00    +0.000 OA
ATOM     16  O   UNL     1      -9.140   3.435  21.030  0.00  0.00    +0.000 OA
ATOM     17  O   UNL     1      -7.754   5.303  21.637  0.00  0.00    +0.000 OA
ENDBRANCH  13  14
ENDBRANCH  12  13
ENDBRANCH  11  12
ENDBRANCH  10  11
ENDBRANCH   1  10
TORSDOF 12
ENDMDL
MODEL 3
REMARK VINA RESULT:      -6.2      4.407      6.592
REMARK  Name = human_CD1d_SDS_pred.rank_0
REMARK  12 active torsions:
REMARK  status: ('A' for Active; 'I' for Inactive)
REMARK    1  A    between atoms: O_2  and  S_3
REMARK    2  A    between atoms: O_2  and  C_17
REMARK    3  A    between atoms: C_4  and  C_6
REMARK    4  A    between atoms: C_6  and  C_8
REMARK    5  A    between atoms: C_8  and  C_10
REMARK    6  A    between atoms: C_10  and  C_11
REMARK    7  A    between atoms: C_11  and  C_12
REMARK    8  A    between atoms: C_12  and  C_13
REMARK    9  A    between atoms: C_13  and  C_14
REMARK   10  A    between atoms: C_14  and  C_15
REMARK   11  A    between atoms: C_15  and  C_16
REMARK   12  A    between atoms: C_16  and  C_17
REMARK                            x       y       z     vdW  Elec       q    Type
REMARK                         _______ _______ _______ _____ _____    ______ ____
ROOT
ATOM      1  C   UNL     1      -4.735   4.181  21.704  0.00  0.00    +0.000 C 
ENDROOT
BRANCH   1   2
ATOM      2  C   UNL     1      -5.221   3.359  22.870  0.00  0.00    +0.000 C 
BRANCH   2   3
ATOM      3  C   UNL     1      -6.516   2.578  22.531  0.00  0.00    +0.000 C 
BRANCH   3   4
ATOM      4  C   UNL     1      -7.198   3.132  21.278  0.00  0.00    +0.000 C 
BRANCH   4   5
ATOM      5  C   UNL     1      -8.450   3.924  21.633  0.00  0.00    +0.000 C 
BRANCH   5   6
ATOM      6  C   UNL     1      -8.181   5.420  21.742  0.00  0.00    +0.000 C 
BRANCH   6   7
ATOM      7  C   UNL     1      -8.236   5.872  23.179  0.00  0.00    +0.000 C 
BRANCH   7   9
ATOM      8  C   UNL     1      -6.595   7.684  22.580  0.00  0.00    +0.000 C 
ATOM      9  C   UNL     1      -6.980   6.626  23.585  0.00  0.00    +0.000 C 
ENDBRANCH   7   9
ENDBRANCH   6   7
ENDBRANCH   5   6
ENDBRANCH   4   5
ENDBRANCH   3   4
ENDBRANCH   2   3
ENDBRANCH   1   2
BRANCH   1  10
ATOM     10  C   UNL     1      -3.315   4.703  21.916  0.00  0.00    +0.000 C 
BRANCH  10  11
ATOM     11  C   UNL     1      -3.300   5.959  22.812  0.00  0.00    +0.000 C 
BRANCH  11  12
ATOM     12  C   UNL     1      -2.068   5.976  23.693  0.00  0.00    +0.000 C 
BRANCH  12  13
ATOM     13  O   UNL     1      -2.056   4.866  24.558  0.00  0.00    +0.000 OA
BRANCH  13  14
ATOM     14  S   UNL     1      -0.795   4.747  25.503  0.00  0.00    +0.000 S 
ATOM     15  O   UNL     1      -0.966   5.664  26.620  0.00  0.00    +0.000 OA
ATOM     16  O   UNL     1      -0.658   3.412  25.972  0.00  0.00    +0.000 OA
ATOM     17  O   UNL     1       0.397   5.140  24.677  0.00  0.00    +0.000 OA
ENDBRANCH  13  14
ENDBRANCH  12  13
ENDBRANCH  11  12
ENDBRANCH  10  11
ENDBRANCH   1  10
TORSDOF 12
ENDMDL
MODEL 4
REMARK VINA RESULT:      -6.1      2.300      3.315
REMARK  Name = human_CD1d_SDS_pred.rank_0
REMARK  12 active torsions:
REMARK  status: ('A' for Active; 'I' for Inactive)
REMARK    1  A    between atoms: O_2  and  S_3
REMARK    2  A    between atoms: O_2  and  C_17
REMARK    3  A    between atoms: C_4  and  C_6
REMARK    4  A    between atoms: C_6  and  C_8
REMARK    5  A    between atoms: C_8  and  C_10
REMARK    6  A    between atoms: C_10  and  C_11
REMARK    7  A    between atoms: C_11  and  C_12
REMARK    8  A    between atoms: C_12  and  C_13
REMARK    9  A    between atoms: C_13  and  C_14
REMARK   10  A    between atoms: C_14  and  C_15
REMARK   11  A    between atoms: C_15  and  C_16
REMARK   12  A    between atoms: C_16  and  C_17
REMARK                            x       y       z     vdW  Elec       q    Type
REMARK                         _______ _______ _______ _____ _____    ______ ____
ROOT
ATOM      1  C   UNL     1      -3.509   5.563  23.279  0.00  0.00    +0.000 C 
ENDROOT
BRANCH   1   2
ATOM      2  C   UNL     1      -3.738   4.523  24.344  0.00  0.00    +0.000 C 
BRANCH   2   3
ATOM      3  C   UNL     1      -2.675   4.600  25.471  0.00  0.00    +0.000 C 
BRANCH   3   4
ATOM      4  C   UNL     1      -1.786   5.837  25.323  0.00  0.00    +0.000 C 
BRANCH   4   5
ATOM      5  C   UNL     1      -0.568   5.754  26.233  0.00  0.00    +0.000 C 
BRANCH   5   6
ATOM      6  C   UNL     1       0.577   6.639  25.756  0.00  0.00    +0.000 C 
BRANCH   6   7
ATOM      7  C   UNL     1       0.640   6.673  24.250  0.00  0.00    +0.000 C 
BRANCH   7   9
ATOM      8  C   UNL     1       1.010   9.114  24.735  0.00  0.00    +0.000 C 
ATOM      9  C   UNL     1       0.578   8.092  23.712  0.00  0.00    +0.000 C 
ENDBRANCH   7   9
ENDBRANCH   6   7
ENDBRANCH   5   6
ENDBRANCH   4   5
ENDBRANCH   3   4
ENDBRANCH   2   3
ENDBRANCH   1   2
BRANCH   1  10
ATOM     10  C   UNL     1      -4.637   6.592  23.223  0.00  0.00    +0.000 C 
BRANCH  10  11
ATOM     11  C   UNL     1      -5.927   6.057  23.879  0.00  0.00    +0.000 C 
BRANCH  11  12
ATOM     12  C   UNL     1      -6.938   5.653  22.826  0.00  0.00    +0.000 C 
BRANCH  12  13
ATOM     13  O   UNL     1      -7.394   4.340  23.048  0.00  0.00    +0.000 OA
BRANCH  13  14
ATOM     14  S   UNL     1      -7.040   3.292  21.920  0.00  0.00    +0.000 S 
ATOM     15  O   UNL     1      -6.676   2.034  22.556  0.00  0.00    +0.000 OA
ATOM     16  O   UNL     1      -8.153   3.108  21.055  0.00  0.00    +0.000 OA
ATOM     17  O   UNL     1      -5.871   3.856  21.163  0.00  0.00    +0.000 OA
ENDBRANCH  13  14
ENDBRANCH  12  13
ENDBRANCH  11  12
ENDBRANCH  10  11
ENDBRANCH   1  10
TORSDOF 12
ENDMDL
MODEL 5
REMARK VINA RESULT:      -6.1     13.365     16.715
REMARK  Name = human_CD1d_SDS_pred.rank_0
REMARK  12 active torsions:
REMARK  status: ('A' for Active; 'I' for Inactive)
REMARK    1  A    between atoms: O_2  and  S_3
REMARK    2  A    between atoms: O_2  and  C_17
REMARK    3  A    between atoms: C_4  and  C_6
REMARK    4  A    between atoms: C_6  and  C_8
REMARK    5  A    between atoms: C_8  and  C_10
REMARK    6  A    between atoms: C_10  and  C_11
REMARK    7  A    between atoms: C_11  and  C_12
REMARK    8  A    between atoms: C_12  and  C_13
REMARK    9  A    between atoms: C_13  and  C_14
REMARK   10  A    between atoms: C_14  and  C_15
REMARK   11  A    between atoms: C_15  and  C_16
REMARK   12  A    between atoms: C_16  and  C_17
REMARK                            x       y       z     vdW  Elec       q    Type
REMARK                         _______ _______ _______ _____ _____    ______ ____
ROOT
ATOM      1  C   UNL     1     -11.250   5.462   7.094  0.00  0.00    +0.000 C 
ENDROOT
BRANCH   1   2
ATOM      2  C   UNL     1     -12.452   5.822   7.927  0.00  0.00    +0.000 C 
BRANCH   2   3
ATOM      3  C   UNL     1     -13.752   5.173   7.384  0.00  0.00    +0.000 C 
BRANCH   3   4
ATOM      4  C   UNL     1     -13.466   4.236   6.208  0.00  0.00    +0.000 C 
BRANCH   4   5
ATOM      5  C   UNL     1     -14.452   3.076   6.173  0.00  0.00    +0.000 C 
BRANCH   5   6
ATOM      6  C   UNL     1     -15.157   2.870   7.509  0.00  0.00    +0.000 C 
BRANCH   6   7
ATOM      7  C   UNL     1     -14.765   1.552   8.126  0.00  0.00    +0.000 C 
BRANCH   7   9
ATOM      8  C   UNL     1     -15.317   0.172  10.157  0.00  0.00    +0.000 C 
ATOM      9  C   UNL     1     -15.864   0.994   9.015  0.00  0.00    +0.000 C 
ENDBRANCH   7   9
ENDBRANCH   6   7
ENDBRANCH   5   6
ENDBRANCH   4   5
ENDBRANCH   3   4
ENDBRANCH   2   3
ENDBRANCH   1   2
BRANCH   1  10
ATOM     10  C   UNL     1     -10.202   4.690   7.893  0.00  0.00    +0.000 C 
BRANCH  10  11
ATOM     11  C   UNL     1     -10.484   4.752   9.408  0.00  0.00    +0.000 C 
BRANCH  11  12
ATOM     12  C   UNL     1      -9.213   5.040  10.180  0.00  0.00    +0.000 C 
BRANCH  12  13
ATOM     13  O   UNL     1      -8.723   3.872  10.792  0.00  0.00    +0.000 OA
BRANCH  13  14
ATOM     14  S   UNL     1      -9.013   3.735  12.340  0.00  0.00    +0.000 S 
ATOM     15  O   UNL     1      -7.911   3.008  12.954  0.00  0.00    +0.000 OA
ATOM     16  O   UNL     1      -9.149   5.022  12.928  0.00  0.00    +0.000 OA
ATOM     17  O   UNL     1     -10.293   2.959  12.468  0.00  0.00    +0.000 OA
ENDBRANCH  13  14
ENDBRANCH  12  13
ENDBRANCH  11  12
ENDBRANCH  10  11
ENDBRANCH   1  10
TORSDOF 12
ENDMDL
MODEL 6
REMARK VINA RESULT:      -6.1     11.994     15.155
REMARK  Name = human_CD1d_SDS_pred.rank_0
REMARK  12 active torsions:
REMARK  status: ('A' for Active; 'I' for Inactive)
REMARK    1  A    between atoms: O_2  and  S_3
REMARK    2  A    between atoms: O_2  and  C_17
REMARK    3  A    between atoms: C_4  and  C_6
REMARK    4  A    between atoms: C_6  and  C_8
REMARK    5  A    between atoms: C_8  and  C_10
REMARK    6  A    between atoms: C_10  and  C_11
REMARK    7  A    between atoms: C_11  and  C_12
REMARK    8  A    between atoms: C_12  and  C_13
REMARK    9  A    between atoms: C_13  and  C_14
REMARK   10  A    between atoms: C_14  and  C_15
REMARK   11  A    between atoms: C_15  and  C_16
REMARK   12  A    between atoms: C_16  and  C_17
REMARK                            x       y       z     vdW  Elec       q    Type
REMARK                         _______ _______ _______ _____ _____    ______ ____
ROOT
ATOM      1  C   UNL     1      -9.275   4.282   9.876  0.00  0.00    +0.000 C 
ENDROOT
BRANCH   1   2
ATOM      2  C   UNL     1      -9.843   4.311   8.480  0.00  0.00    +0.000 C 
BRANCH   2   3
ATOM      3  C   UNL     1      -9.944   5.754   7.923  0.00  0.00    +0.000 C 
BRANCH   3   4
ATOM      4  C   UNL     1     -11.269   5.984   7.191  0.00  0.00    +0.000 C 
BRANCH   4   5
ATOM      5  C   UNL     1     -12.458   5.711   8.102  0.00  0.00    +0.000 C 
BRANCH   5   6
ATOM      6  C   UNL     1     -13.658   5.156   7.344  0.00  0.00    +0.000 C 
BRANCH   6   7
ATOM      7  C   UNL     1     -13.790   3.670   7.560  0.00  0.00    +0.000 C 
BRANCH   7   9
ATOM      8  C   UNL     1     -15.464   1.915   8.232  0.00  0.00    +0.000 C 
ATOM      9  C   UNL     1     -15.238   3.214   7.498  0.00  0.00    +0.000 C 
ENDBRANCH   7   9
ENDBRANCH   6   7
ENDBRANCH   5   6
ENDBRANCH   4   5
ENDBRANCH   3   4
ENDBRANCH   2   3
ENDBRANCH   1   2
BRANCH   1  10
ATOM     10  C   UNL     1     -10.051   5.183  10.834  0.00  0.00    +0.000 C 
BRANCH  10  11
ATOM     11  C   UNL     1      -9.261   5.445  12.133  0.00  0.00    +0.000 C 
BRANCH  11  12
ATOM     12  C   UNL     1      -9.400   4.279  13.091  0.00  0.00    +0.000 C 
BRANCH  12  13
ATOM     13  O   UNL     1     -10.723   4.168  13.556  0.00  0.00    +0.000 OA
BRANCH  13  14
ATOM     14  S   UNL     1     -10.908   3.384  14.916  0.00  0.00    +0.000 S 
ATOM     15  O   UNL     1     -11.907   4.077  15.716  0.00  0.00    +0.000 OA
ATOM     16  O   UNL     1     -11.317   2.047  14.659  0.00  0.00    +0.000 OA
ATOM     17  O   UNL     1      -9.573   3.404  15.606  0.00  0.00    +0.000 OA
ENDBRANCH  13  14
ENDBRANCH  12  13
ENDBRANCH  11  12
ENDBRANCH  10  11
ENDBRANCH   1  10
TORSDOF 12
ENDMDL
MODEL 7
REMARK VINA RESULT:      -6.0     12.546     14.442
REMARK  Name = human_CD1d_SDS_pred.rank_0
REMARK  12 active torsions:
REMARK  status: ('A' for Active; 'I' for Inactive)
REMARK    1  A    between atoms: O_2  and  S_3
REMARK    2  A    between atoms: O_2  and  C_17
REMARK    3  A    between atoms: C_4  and  C_6
REMARK    4  A    between atoms: C_6  and  C_8
REMARK    5  A    between atoms: C_8  and  C_10
REMARK    6  A    between atoms: C_10  and  C_11
REMARK    7  A    between atoms: C_11  and  C_12
REMARK    8  A    between atoms: C_12  and  C_13
REMARK    9  A    between atoms: C_13  and  C_14
REMARK   10  A    between atoms: C_14  and  C_15
REMARK   11  A    between atoms: C_15  and  C_16
REMARK   12  A    between atoms: C_16  and  C_17
REMARK                            x       y       z     vdW  Elec       q    Type
REMARK                         _______ _______ _______ _____ _____    ______ ____
ROOT
ATOM      1  C   UNL     1      -9.305   5.085  12.507  0.00  0.00    +0.000 C 
ENDROOT
BRANCH   1   2
ATOM      2  C   UNL     1     -10.529   4.602  13.240  0.00  0.00    +0.000 C 
BRANCH   2   3
ATOM      3  C   UNL     1     -10.169   3.655  14.413  0.00  0.00    +0.000 C 
BRANCH   3   4
ATOM      4  C   UNL     1     -10.901   2.316  14.304  0.00  0.00    +0.000 C 
BRANCH   4   5
ATOM      5  C   UNL     1     -12.279   2.488  13.678  0.00  0.00    +0.000 C 
BRANCH   5   6
ATOM      6  C   UNL     1     -13.365   1.745  14.447  0.00  0.00    +0.000 C 
BRANCH   6   7
ATOM      7  C   UNL     1     -13.161   0.254  14.358  0.00  0.00    +0.000 C 
BRANCH   7   9
ATOM      8  C   UNL     1     -13.409   0.589  16.840  0.00  0.00    +0.000 C 
ATOM      9  C   UNL     1     -13.134  -0.397  15.732  0.00  0.00    +0.000 C 
ENDBRANCH   7   9
ENDBRANCH   6   7
ENDBRANCH   5   6
ENDBRANCH   4   5
ENDBRANCH   3   4
ENDBRANCH   2   3
ENDBRANCH   1   2
BRANCH   1  10
ATOM     10  C   UNL     1      -9.055   4.302  11.219  0.00  0.00    +0.000 C 
BRANCH  10  11
ATOM     11  C   UNL     1      -9.973   4.781  10.076  0.00  0.00    +0.000 C 
BRANCH  11  12
ATOM     12  C   UNL     1      -9.381   4.429   8.727  0.00  0.00    +0.000 C 
BRANCH  12  13
ATOM     13  O   UNL     1      -9.305   5.566   7.902  0.00  0.00    +0.000 OA
BRANCH  13  14
ATOM     14  S   UNL     1     -10.430   5.688   6.798  0.00  0.00    +0.000 S 
ATOM     15  O   UNL     1     -11.552   6.423   7.360  0.00  0.00    +0.000 OA
ATOM     16  O   UNL     1      -9.920   6.358   5.652  0.00  0.00    +0.000 OA
ATOM     17  O   UNL     1     -10.840   4.285   6.449  0.00  0.00    +0.000 OA
ENDBRANCH  13  14
ENDBRANCH  12  13
ENDBRANCH  11  12
ENDBRANCH  10  11
ENDBRANCH   1  10
TORSDOF 12
ENDMDL
MODEL 8
REMARK VINA RESULT:      -6.0      1.843      2.706
REMARK  Name = human_CD1d_SDS_pred.rank_0
REMARK  12 active torsions:
REMARK  status: ('A' for Active; 'I' for Inactive)
REMARK    1  A    between atoms: O_2  and  S_3
REMARK    2  A    between atoms: O_2  and  C_17
REMARK    3  A    between atoms: C_4  and  C_6
REMARK    4  A    between atoms: C_6  and  C_8
REMARK    5  A    between atoms: C_8  and  C_10
REMARK    6  A    between atoms: C_10  and  C_11
REMARK    7  A    between atoms: C_11  and  C_12
REMARK    8  A    between atoms: C_12  and  C_13
REMARK    9  A    between atoms: C_13  and  C_14
REMARK   10  A    between atoms: C_14  and  C_15
REMARK   11  A    between atoms: C_15  and  C_16
REMARK   12  A    between atoms: C_16  and  C_17
REMARK                            x       y       z     vdW  Elec       q    Type
REMARK                         _______ _______ _______ _____ _____    ______ ____
ROOT
ATOM      1  C   UNL     1      -3.814   5.740  22.220  0.00  0.00    +0.000 C 
ENDROOT
BRANCH   1   2
ATOM      2  C   UNL     1      -3.470   4.409  22.838  0.00  0.00    +0.000 C 
BRANCH   2   3
ATOM      3  C   UNL     1      -2.097   4.438  23.556  0.00  0.00    +0.000 C 
BRANCH   3   4
ATOM      4  C   UNL     1      -2.255   4.414  25.078  0.00  0.00    +0.000 C 
BRANCH   4   5
ATOM      5  C   UNL     1      -0.908   4.546  25.777  0.00  0.00    +0.000 C 
BRANCH   5   6
ATOM      6  C   UNL     1      -0.480   5.999  25.946  0.00  0.00    +0.000 C 
BRANCH   6   7
ATOM      7  C   UNL     1       0.688   6.323  25.049  0.00  0.00    +0.000 C 
BRANCH   7   9
ATOM      8  C   UNL     1      -1.054   7.925  24.193  0.00  0.00    +0.000 C 
ATOM      9  C   UNL     1       0.312   7.323  23.969  0.00  0.00    +0.000 C 
ENDBRANCH   7   9
ENDBRANCH   6   7
ENDBRANCH   5   6
ENDBRANCH   4   5
ENDBRANCH   3   4
ENDBRANCH   2   3
ENDBRANCH   1   2
BRANCH   1  10
ATOM     10  C   UNL     1      -4.476   6.687  23.218  0.00  0.00    +0.000 C 
BRANCH  10  11
ATOM     11  C   UNL     1      -5.871   7.135  22.736  0.00  0.00    +0.000 C 
BRANCH  11  12
ATOM     12  C   UNL     1      -6.886   6.027  22.923  0.00  0.00    +0.000 C 
BRANCH  12  13
ATOM     13  O   UNL     1      -8.071   6.524  23.497  0.00  0.00    +0.000 OA
BRANCH  13  14
ATOM     14  S   UNL     1      -9.316   6.616  22.528  0.00  0.00    +0.000 S 
ATOM     15  O   UNL     1      -9.375   7.963  21.979  0.00  0.00    +0.000 OA
ATOM     16  O   UNL     1      -9.197   5.658  21.485  0.00  0.00    +0.000 OA
ATOM     17  O   UNL     1     -10.531   6.335  23.366  0.00  0.00    +0.000 OA
ENDBRANCH  13  14
ENDBRANCH  12  13
ENDBRANCH  11  12
ENDBRANCH  10  11
ENDBRANCH   1  10
TORSDOF 12
ENDMDL
MODEL 9
REMARK VINA RESULT:      -5.9      4.170      6.968
REMARK  Name = human_CD1d_SDS_pred.rank_0
REMARK  12 active torsions:
REMARK  status: ('A' for Active; 'I' for Inactive)
REMARK    1  A    between atoms: O_2  and  S_3
REMARK    2  A    between atoms: O_2  and  C_17
REMARK    3  A    between atoms: C_4  and  C_6
REMARK    4  A    between atoms: C_6  and  C_8
REMARK    5  A    between atoms: C_8  and  C_10
REMARK    6  A    between atoms: C_10  and  C_11
REMARK    7  A    between atoms: C_11  and  C_12
REMARK    8  A    between atoms: C_12  and  C_13
REMARK    9  A    between atoms: C_13  and  C_14
REMARK   10  A    between atoms: C_14  and  C_15
REMARK   11  A    between atoms: C_15  and  C_16
REMARK   12  A    between atoms: C_16  and  C_17
REMARK                            x       y       z     vdW  Elec       q    Type
REMARK                         _______ _______ _______ _____ _____    ______ ____
ROOT
ATOM      1  C   UNL     1      -5.649   6.153  22.639  0.00  0.00    +0.000 C 
ENDROOT
BRANCH   1   2
ATOM      2  C   UNL     1      -6.246   7.530  22.776  0.00  0.00    +0.000 C 
BRANCH   2   3
ATOM      3  C   UNL     1      -7.784   7.520  22.580  0.00  0.00    +0.000 C 
BRANCH   3   4
ATOM      4  C   UNL     1      -8.450   6.408  23.394  0.00  0.00    +0.000 C 
BRANCH   4   5
ATOM      5  C   UNL     1      -9.465   5.642  22.557  0.00  0.00    +0.000 C 
BRANCH   5   6
ATOM      6  C   UNL     1      -9.087   4.176  22.381  0.00  0.00    +0.000 C 
BRANCH   6   7
ATOM      7  C   UNL     1      -8.176   3.995  21.194  0.00  0.00    +0.000 C 
BRANCH   7   9
ATOM      8  C   UNL     1      -6.768   2.629  22.771  0.00  0.00    +0.000 C 
ATOM      9  C   UNL     1      -7.268   2.787  21.356  0.00  0.00    +0.000 C 
ENDBRANCH   7   9
ENDBRANCH   6   7
ENDBRANCH   5   6
ENDBRANCH   4   5
ENDBRANCH   3   4
ENDBRANCH   2   3
ENDBRANCH   1   2
BRANCH   1  10
ATOM     10  C   UNL     1      -4.155   6.199  22.328  0.00  0.00    +0.000 C 
BRANCH  10  11
ATOM     11  C   UNL     1      -3.548   4.783  22.247  0.00  0.00    +0.000 C 
BRANCH  11  12
ATOM     12  C   UNL     1      -2.215   4.728  22.964  0.00  0.00    +0.000 C 
BRANCH  12  13
ATOM     13  O   UNL     1      -2.293   5.365  24.216  0.00  0.00    +0.000 OA
BRANCH  13  14
ATOM     14  S   UNL     1      -1.078   6.306  24.584  0.00  0.00    +0.000 S 
ATOM     15  O   UNL     1      -1.441   7.678  24.261  0.00  0.00    +0.000 OA
ATOM     16  O   UNL     1      -0.765   6.186  25.965  0.00  0.00    +0.000 OA
ATOM     17  O   UNL     1       0.082   5.856  23.740  0.00  0.00    +0.000 OA
ENDBRANCH  13  14
ENDBRANCH  12  13
ENDBRANCH  11  12
ENDBRANCH  10  11
ENDBRANCH   1  10
TORSDOF 12
ENDMDL
