REMARK  Name = human_CD1d_ODG_pred.rank_0
REMARK  9 active torsions:
REMARK  status: ('A' for Active; 'I' for Inactive)
REMARK    1  A    between atoms: C_7  and  O_8
REMARK    2  A    between atoms: O_8  and  C_9
REMARK    3  A    between atoms: C_9  and  C_11
REMARK    4  A    between atoms: C_11  and  C_13
REMARK    5  A    between atoms: C_13  and  C_14
REMARK    6  A    between atoms: C_14  and  C_15
REMARK    7  A    between atoms: C_15  and  C_16
REMARK    8  A    between atoms: C_16  and  C_17
REMARK    9  A    between atoms: C_19  and  C_20
REMARK                            x       y       z     vdW  Elec       q    Type
REMARK                         _______ _______ _______ _____ _____    ______ ____
ROOT
ATOM      1  C   UNL     1     -16.168  18.980  11.081  0.00  0.00    +0.000 C 
ATOM      2  O   UNL     1     -16.449  19.475  12.387  0.00  0.00    +0.000 OA
ATOM      3  C   UNL     1     -16.495  20.041  10.039  0.00  0.00    +0.000 C 
ATOM      4  O   UNL     1     -17.866  20.301  10.043  0.00  0.00    +0.000 OA
ATOM      5  C   UNL     1     -16.072  19.554   8.660  0.00  0.00    +0.000 C 
ATOM      6  O   UNL     1     -16.275  20.628   7.720  0.00  0.00    +0.000 OA
ATOM      7  C   UNL     1     -14.565  19.228   8.683  0.00  0.00    +0.000 C 
ATOM      8  O   UNL     1     -14.300  18.163   9.642  0.00  0.00    +0.000 OA
ATOM      9  C   UNL     1     -14.683  18.612  10.999  0.00  0.00    +0.000 C 
ENDROOT
BRANCH   9  11
ATOM     10  O   UNL     1     -12.938  17.412  12.066  0.00  0.00    +0.000 OA
ATOM     11  C   UNL     1     -14.362  17.461  11.948  0.00  0.00    +0.000 C 
ENDBRANCH   9  11
BRANCH   7  12
ATOM     12  O   UNL     1     -14.217  18.717   7.403  0.00  0.00    +0.000 OA
BRANCH  12  13
ATOM     13  C   UNL     1     -12.843  18.931   7.086  0.00  0.00    +0.000 C 
BRANCH  13  14
ATOM     14  C   UNL     1     -12.847  19.720   5.751  0.00  0.00    +0.000 C 
BRANCH  14  15
ATOM     15  C   UNL     1     -11.472  19.603   5.093  0.00  0.00    +0.000 C 
BRANCH  15  16
ATOM     16  C   UNL     1     -11.353  20.683   3.997  0.00  0.00    +0.000 C 
BRANCH  16  17
ATOM     17  C   UNL     1     -11.326  20.003   2.666  0.00  0.00    +0.000 C 
BRANCH  17  18
ATOM     18  C   UNL     1     -11.449  21.071   1.571  0.00  0.00    +0.000 C 
BRANCH  18  19
ATOM     19  C   UNL     1     -11.655  20.372   0.259  0.00  0.00    +0.000 C 
ATOM     20  C   UNL     1     -12.286  21.341  -0.730  0.00  0.00    +0.000 C 
ENDBRANCH  18  19
ENDBRANCH  17  18
ENDBRANCH  16  17
ENDBRANCH  15  16
ENDBRANCH  14  15
ENDBRANCH  13  14
ENDBRANCH  12  13
ENDBRANCH   7  12
TORSDOF 9
