MODEL 1
REMARK VINA RESULT:      -7.5      0.000      0.000
REMARK  Name = human_CD1d_ODG_pred.rank_0
REMARK  9 active torsions:
REMARK  status: ('A' for Active; 'I' for Inactive)
REMARK    1  A    between atoms: C_7  and  O_8
REMARK    2  A    between atoms: O_8  and  C_9
REMARK    3  A    between atoms: C_9  and  C_11
REMARK    4  A    between atoms: C_11  and  C_13
REMARK    5  A    between atoms: C_13  and  C_14
REMARK    6  A    between atoms: C_14  and  C_15
REMARK    7  A    between atoms: C_15  and  C_16
REMARK    8  A    between atoms: C_16  and  C_17
REMARK    9  A    between atoms: C_19  and  C_20
REMARK                            x       y       z     vdW  Elec       q    Type
REMARK                         _______ _______ _______ _____ _____    ______ ____
ROOT
ATOM      1  C   UNL     1     -13.099  -0.920  12.376  0.00  0.00    +0.000 C 
ATOM      2  O   UNL     1     -12.442  -2.041  12.962  0.00  0.00    +0.000 OA
ATOM      3  C   UNL     1     -13.741  -1.324  11.056  0.00  0.00    +0.000 C 
ATOM      4  O   UNL     1     -12.753  -1.687  10.141  0.00  0.00    +0.000 OA
ATOM      5  C   UNL     1     -14.548  -0.159  10.500  0.00  0.00    +0.000 C 
ATOM      6  O   UNL     1     -15.245  -0.613   9.323  0.00  0.00    +0.000 OA
ATOM      7  C   UNL     1     -15.606   0.261  11.540  0.00  0.00    +0.000 C 
ATOM      8  O   UNL     1     -14.953   0.704  12.765  0.00  0.00    +0.000 OA
ATOM      9  C   UNL     1     -14.174  -0.414  13.343  0.00  0.00    +0.000 C 
ENDROOT
BRANCH   9  11
ATOM     10  O   UNL     1     -12.560   1.081  14.231  0.00  0.00    +0.000 OA
ATOM     11  C   UNL     1     -13.537   0.114  14.626  0.00  0.00    +0.000 C 
ENDBRANCH   9  11
BRANCH   7  12
ATOM     12  O   UNL     1     -16.297   1.388  11.019  0.00  0.00    +0.000 OA
BRANCH  12  13
ATOM     13  C   UNL     1     -15.898   2.608  11.641  0.00  0.00    +0.000 C 
BRANCH  13  14
ATOM     14  C   UNL     1     -15.483   3.546  10.478  0.00  0.00    +0.000 C 
BRANCH  14  15
ATOM     15  C   UNL     1     -16.159   4.905  10.662  0.00  0.00    +0.000 C 
BRANCH  15  16
ATOM     16  C   UNL     1     -16.348   5.556   9.276  0.00  0.00    +0.000 C 
BRANCH  16  17
ATOM     17  C   UNL     1     -15.783   4.637   8.242  0.00  0.00    +0.000 C 
BRANCH  17  18
ATOM     18  C   UNL     1     -15.161   5.486   7.124  0.00  0.00    +0.000 C 
BRANCH  18  19
ATOM     19  C   UNL     1     -14.372   4.574   6.231  0.00  0.00    +0.000 C 
ATOM     20  C   UNL     1     -13.072   4.195   6.926  0.00  0.00    +0.000 C 
ENDBRANCH  18  19
ENDBRANCH  17  18
ENDBRANCH  16  17
ENDBRANCH  15  16
ENDBRANCH  14  15
ENDBRANCH  13  14
ENDBRANCH  12  13
ENDBRANCH   7  12
TORSDOF 9
BEGIN_RES LEU A  10
REMARK  2 active torsions:
REMARK  status: ('A' for Active; 'I' for Inactive)
REMARK    1  A    between atoms: CA   and  CB  
REMARK    2  A    between atoms: CB   and  CG  
ROOT
ATOM      1  CA  LEU A  10     -10.775  -4.871   5.898  1.00 25.14     0.177 C 
ENDROOT
BRANCH   1   2
ATOM      2  CB  LEU A  10     -12.191  -4.387   6.226  1.00 17.87     0.038 C 
BRANCH   2   3
ATOM      3  CG  LEU A  10     -12.433  -2.902   5.947  1.00 24.95    -0.020 C 
ATOM      4  CD2 LEU A  10     -13.595  -2.438   6.758  1.00 26.38     0.009 C 
ATOM      5  CD1 LEU A  10     -12.682  -2.661   4.468  1.00 28.12     0.009 C 
ENDBRANCH   2   3
ENDBRANCH   1   2
END_RES LEU A  10
BEGIN_RES CYS A  12
REMARK  2 active torsions:
REMARK  status: ('A' for Active; 'I' for Inactive)
REMARK    3  A    between atoms: CA   and  CB  
REMARK    4  A    between atoms: CB   and  SG  
ROOT
ATOM      6  CA  CYS A  12      -8.555   0.470   8.750  1.00 23.16     0.185 C 
ENDROOT
BRANCH   6   7
ATOM      7  CB  CYS A  12      -9.828   0.763   9.555  1.00 20.43     0.105 C 
BRANCH   7   8
ATOM      8  SG  CYS A  12     -11.293   1.242   8.589  1.00 24.64    -0.180 SA
ATOM      9  H04 CYS A  12     -11.436   2.573   8.622  1.00 24.64     0.101 HD
ENDBRANCH   7   8
ENDBRANCH   6   7
END_RES CYS A  12
BEGIN_RES GLN A  14
REMARK  3 active torsions:
REMARK  status: ('A' for Active; 'I' for Inactive)
REMARK    5  A    between atoms: CA   and  CB  
REMARK    6  A    between atoms: CB   and  CG  
REMARK    7  A    between atoms: CG   and  CD  
REMARK       I    between atoms: CD   and  NE2 
ROOT
ATOM     10  CA  GLN A  14      -4.645   5.402  11.377  1.00 10.43     0.177 C 
ENDROOT
BRANCH  10  11
ATOM     11  CB  GLN A  14      -5.541   5.549  12.608  1.00 14.45     0.044 C 
BRANCH  11  12
ATOM     12  CG  GLN A  14      -6.418   6.780  12.589  1.00 13.74     0.105 C 
BRANCH  12  13
ATOM     13  CD  GLN A  14      -5.692   8.013  13.070  1.00 16.29     0.215 C 
ATOM     14  NE2 GLN A  14      -5.602   8.170  14.373  1.00  8.57    -0.370 N 
ATOM     15  H06 GLN A  14      -5.126   8.976  14.752  1.00  8.57     0.159 HD
ATOM     16  H07 GLN A  14      -6.008   7.485  14.993  1.00  8.57     0.159 HD
ATOM     17  OE1 GLN A  14      -5.216   8.812  12.279  1.00 23.55    -0.274 OA
ENDBRANCH  12  13
ENDBRANCH  11  12
ENDBRANCH  10  11
END_RES GLN A  14
BEGIN_RES SER A  16
REMARK  2 active torsions:
REMARK  status: ('A' for Active; 'I' for Inactive)
REMARK    8  A    between atoms: CA   and  CB  
REMARK    9  A    between atoms: CB   and  OG  
ROOT
ATOM     18  CA  SER A  16      -1.305  10.019  14.282  1.00  2.34     0.200 C 
ENDROOT
BRANCH  18  19
ATOM     19  CB  SER A  16      -2.242   9.935  15.479  1.00  3.12     0.199 C 
BRANCH  19  20
ATOM     20  OG  SER A  16      -2.317   8.602  15.953  1.00  1.00    -0.398 OA
ATOM     21  H04 SER A  16      -1.548   8.112  15.653  1.00  1.00     0.209 HD
ENDBRANCH  19  20
ENDBRANCH  18  19
END_RES SER A  16
BEGIN_RES LEU A  32
REMARK  2 active torsions:
REMARK  status: ('A' for Active; 'I' for Inactive)
REMARK   10  A    between atoms: CA   and  CB  
REMARK   11  A    between atoms: CB   and  CG  
ROOT
ATOM     22  CA  LEU A  32     -10.272  -4.106   1.587  1.00 16.16     0.177 C 
ENDROOT
BRANCH  22  23
ATOM     23  CB  LEU A  32     -11.613  -3.858   0.880  1.00 12.35     0.038 C 
BRANCH  23  24
ATOM     24  CG  LEU A  32     -12.495  -5.123   0.862  1.00  9.77    -0.020 C 
ATOM     25  CD1 LEU A  32     -12.992  -5.437   2.253  1.00  4.35     0.009 C 
ATOM     26  CD2 LEU A  32     -13.666  -4.947  -0.069  1.00 10.60     0.009 C 
ENDBRANCH  23  24
ENDBRANCH  22  23
END_RES LEU A  32
BEGIN_RES HIS A  38
REMARK  2 active torsions:
REMARK  status: ('A' for Active; 'I' for Inactive)
REMARK   12  A    between atoms: CA   and  CB  
REMARK   13  A    between atoms: CB   and  CG  
ROOT
ATOM     27  CA  HIS A  38     -10.959   4.941   1.621  1.00 16.94     0.182 C 
ENDROOT
BRANCH  27  28
ATOM     28  CB  HIS A  38     -11.810   4.840   2.881  1.00 15.47     0.095 C 
BRANCH  28  29
ATOM     29  CG  HIS A  38     -13.031   3.993   2.719  1.00 18.62     0.053 A 
ATOM     30  CD2 HIS A  38     -14.179   4.211   2.035  1.00 15.06     0.116 A 
ATOM     31  NE2 HIS A  38     -14.960   3.095   2.193  1.00 18.12    -0.359 N 
ATOM     32  CE1 HIS A  38     -14.317   2.223   2.947  1.00 14.78     0.207 A 
ATOM     33  H06 HIS A  38     -15.879   2.962   1.797  1.00 18.12     0.166 HD
ATOM     34  ND1 HIS A  38     -13.151   2.740   3.279  1.00 16.58    -0.247 NA
ENDBRANCH  28  29
ENDBRANCH  27  28
END_RES HIS A  38
BEGIN_RES TRP A  63
REMARK  2 active torsions:
REMARK  status: ('A' for Active; 'I' for Inactive)
REMARK   14  A    between atoms: CA   and  CB  
REMARK   15  A    between atoms: CB   and  CG  
ROOT
ATOM     35  CA  TRP A  63     -22.437   6.257   6.543  1.00 27.04     0.181 C 
ENDROOT
BRANCH  35  36
ATOM     36  CB  TRP A  63     -22.360   6.642   5.068  1.00 31.37     0.075 C 
BRANCH  36  37
ATOM     37  CG  TRP A  63     -20.953   6.798   4.531  1.00 34.37    -0.028 A 
ATOM     38  CD2 TRP A  63     -19.880   5.850   4.622  1.00 33.79    -0.002 A 
ATOM     39  CE3 TRP A  63     -19.737   4.598   5.223  1.00 32.99     0.014 A 
ATOM     40  CE2 TRP A  63     -18.782   6.395   3.920  1.00 35.84     0.042 A 
ATOM     41  CZ3 TRP A  63     -18.522   3.937   5.109  1.00 32.93     0.001 A 
ATOM     42  CH2 TRP A  63     -17.448   4.506   4.405  1.00 39.24     0.002 A 
ATOM     43  CZ2 TRP A  63     -17.560   5.731   3.804  1.00 37.99     0.030 A 
ATOM     44  NE1 TRP A  63     -19.173   7.611   3.432  1.00 37.98    -0.365 N 
ATOM     45  H06 TRP A  63     -18.599   8.237   2.885  1.00 37.98     0.165 HD
ATOM     46  CD1 TRP A  63     -20.475   7.843   3.805  1.00 38.16     0.096 A 
ENDBRANCH  36  37
ENDBRANCH  35  36
END_RES TRP A  63
BEGIN_RES LEU A  66
REMARK  2 active torsions:
REMARK  status: ('A' for Active; 'I' for Inactive)
REMARK   16  A    between atoms: CA   and  CB  
REMARK   17  A    between atoms: CB   and  CG  
ROOT
ATOM     47  CA  LEU A  66     -20.004   6.489  11.120  1.00 10.90     0.177 C 
ENDROOT
BRANCH  47  48
ATOM     48  CB  LEU A  66     -19.626   5.453  10.069  1.00 13.57     0.038 C 
BRANCH  48  49
ATOM     49  CG  LEU A  66     -19.917   3.988  10.394  1.00  8.73    -0.020 C 
ATOM     50  CD1 LEU A  66     -19.196   3.078   9.434  1.00 14.23     0.009 C 
ATOM     51  CD2 LEU A  66     -19.465   3.714  11.806  1.00  1.92     0.009 C 
ENDBRANCH  48  49
ENDBRANCH  47  48
END_RES LEU A  66
BEGIN_RES PHE A  70
REMARK  2 active torsions:
REMARK  status: ('A' for Active; 'I' for Inactive)
REMARK   18  A    between atoms: CA   and  CB  
REMARK   19  A    between atoms: CB   and  CG  
ROOT
ATOM     52  CA  PHE A  70     -14.974   9.434  13.165  1.00  8.78     0.180 C 
ENDROOT
BRANCH  52  53
ATOM     53  CB  PHE A  70     -14.707   9.132  11.681  1.00  6.33     0.073 C 
BRANCH  53  54
ATOM     54  CG  PHE A  70     -13.947   7.853  11.458  1.00  3.42    -0.056 A 
ATOM     55  CD1 PHE A  70     -13.567   7.051  12.524  1.00 13.88     0.007 A 
ATOM     56  CE1 PHE A  70     -12.816   5.882  12.312  1.00 12.71     0.001 A 
ATOM     57  CZ  PHE A  70     -12.442   5.512  11.020  1.00  4.21     0.000 A 
ATOM     58  CE2 PHE A  70     -12.817   6.302   9.949  1.00  2.83     0.001 A 
ATOM     59  CD2 PHE A  70     -13.568   7.469  10.171  1.00  1.00     0.007 A 
ENDBRANCH  53  54
ENDBRANCH  52  53
END_RES PHE A  70
BEGIN_RES TYR A  73
REMARK  3 active torsions:
REMARK  status: ('A' for Active; 'I' for Inactive)
REMARK   20  A    between atoms: CA   and  CB  
REMARK   21  A    between atoms: CB   and  CG  
REMARK   22  A    between atoms: CZ   and  OH  
ROOT
ATOM     60  CA  TYR A  73     -13.212  10.166  17.260  1.00 12.17     0.180 C 
ENDROOT
BRANCH  60  61
ATOM     61  CB  TYR A  73     -13.301   8.846  16.517  1.00 12.84     0.073 C 
BRANCH  61  62
ATOM     62  CG  TYR A  73     -13.562   7.688  17.415  1.00 15.89    -0.056 A 
ATOM     63  CD1 TYR A  73     -13.570   7.837  18.784  1.00 16.00     0.010 A 
ATOM     64  CE1 TYR A  73     -13.783   6.747  19.628  1.00 13.55     0.037 A 
ATOM     65  CZ  TYR A  73     -13.990   5.497  19.080  1.00 18.13     0.065 A 
ATOM     66  CE2 TYR A  73     -13.988   5.321  17.715  1.00 15.89     0.037 A 
ATOM     67  CD2 TYR A  73     -13.774   6.418  16.890  1.00 21.86     0.010 A 
BRANCH  65  68
ATOM     68  OH  TYR A  73     -14.208   4.411  19.891  1.00 12.12    -0.361 OA
ATOM     69  H08 TYR A  73     -14.690   4.687  20.674  1.00 12.12     0.217 HD
ENDBRANCH  65  68
ENDBRANCH  61  62
ENDBRANCH  60  61
END_RES TYR A  73
BEGIN_RES PHE A  77
REMARK  2 active torsions:
REMARK  status: ('A' for Active; 'I' for Inactive)
REMARK   23  A    between atoms: CA   and  CB  
REMARK   24  A    between atoms: CB   and  CG  
ROOT
ATOM     70  CA  PHE A  77      -8.400  10.581  20.110  1.00 17.17     0.180 C 
ENDROOT
BRANCH  70  71
ATOM     71  CB  PHE A  77      -8.228   9.750  18.851  1.00 10.44     0.073 C 
BRANCH  71  72
ATOM     72  CG  PHE A  77      -8.946   8.437  18.892  1.00  6.07    -0.056 A 
ATOM     73  CD2 PHE A  77      -9.384   7.843  17.731  1.00  9.61     0.007 A 
ATOM     74  CE2 PHE A  77     -10.050   6.623  17.760  1.00  1.00     0.001 A 
ATOM     75  CZ  PHE A  77     -10.277   5.988  18.969  1.00  1.92     0.000 A 
ATOM     76  CE1 PHE A  77      -9.844   6.568  20.139  1.00  9.25     0.001 A 
ATOM     77  CD1 PHE A  77      -9.178   7.794  20.096  1.00  9.63     0.007 A 
ENDBRANCH  71  72
ENDBRANCH  70  71
END_RES PHE A  77
BEGIN_RES LEU A  96
REMARK  2 active torsions:
REMARK  status: ('A' for Active; 'I' for Inactive)
REMARK   25  A    between atoms: CA   and  CB  
REMARK   26  A    between atoms: CB   and  CG  
ROOT
ATOM     78  CA  LEU A  96       0.717   6.481  17.359  1.00 16.08     0.177 C 
ENDROOT
BRANCH  78  79
ATOM     79  CB  LEU A  96      -0.370   7.101  18.230  1.00 18.83     0.038 C 
BRANCH  79  80
ATOM     80  CG  LEU A  96      -0.095   7.035  19.732  1.00 19.03    -0.020 C 
ATOM     81  CD1 LEU A  96       0.618   8.299  20.154  1.00 28.17     0.009 C 
ATOM     82  CD2 LEU A  96      -1.391   6.937  20.502  1.00 22.01     0.009 C 
ENDBRANCH  79  80
ENDBRANCH  78  79
END_RES LEU A  96
BEGIN_RES VAL A  98
REMARK  1 active torsions:
REMARK  status: ('A' for Active; 'I' for Inactive)
REMARK   27  A    between atoms: CA   and  CB  
ROOT
ATOM     83  CA  VAL A  98      -3.928   2.082  14.897  1.00 19.83     0.180 C 
ENDROOT
BRANCH  83  84
ATOM     84  CB  VAL A  98      -5.203   2.807  15.281  1.00 17.87     0.009 C 
ATOM     85  CG2 VAL A  98      -4.920   4.271  15.496  1.00 29.90     0.012 C 
ATOM     86  CG1 VAL A  98      -5.784   2.182  16.532  1.00 14.79     0.012 C 
ENDBRANCH  83  84
END_RES VAL A  98
BEGIN_RES ASN A 112
REMARK  2 active torsions:
REMARK  status: ('A' for Active; 'I' for Inactive)
REMARK   28  A    between atoms: CA   and  CB  
REMARK   29  A    between atoms: CB   and  CG  
REMARK       I    between atoms: CG   and  ND2 
ROOT
ATOM     87  CA  ASN A 112     -11.790  -8.793  14.069  1.00 37.70     0.185 C 
ENDROOT
BRANCH  87  88
ATOM     88  CB  ASN A 112     -12.992  -7.945  14.465  1.00 26.24     0.137 C 
BRANCH  88  89
ATOM     89  CG  ASN A 112     -13.785  -8.538  15.608  1.00 21.77     0.217 C 
ATOM     90  ND2 ASN A 112     -14.918  -9.158  15.278  1.00  9.31    -0.370 N 
ATOM     91  H04 ASN A 112     -15.493  -9.574  15.997  1.00  9.31     0.159 HD
ATOM     92  H05 ASN A 112     -15.200  -9.213  14.310  1.00  9.31     0.159 HD
ATOM     93  OD1 ASN A 112     -13.390  -8.438  16.776  1.00 21.61    -0.274 OA
ENDBRANCH  88  89
ENDBRANCH  87  88
END_RES ASN A 112
BEGIN_RES PHE A 114
REMARK  2 active torsions:
REMARK  status: ('A' for Active; 'I' for Inactive)
REMARK   30  A    between atoms: CA   and  CB  
REMARK   31  A    between atoms: CB   and  CG  
ROOT
ATOM     94  CA  PHE A 114      -7.754  -3.619  17.012  1.00 26.06     0.180 C 
ENDROOT
BRANCH  94  95
ATOM     95  CB  PHE A 114      -8.890  -3.080  17.867  1.00 19.95     0.073 C 
BRANCH  95  96
ATOM     96  CG  PHE A 114      -9.232  -1.656  17.569  1.00 17.65    -0.056 A 
ATOM     97  CD1 PHE A 114      -8.231  -0.703  17.402  1.00 13.01     0.007 A 
ATOM     98  CE1 PHE A 114      -8.548   0.626  17.154  1.00  6.74     0.001 A 
ATOM     99  CZ  PHE A 114      -9.880   1.020  17.065  1.00  6.27     0.000 A 
ATOM    100  CE2 PHE A 114     -10.885   0.080  17.228  1.00 17.36     0.001 A 
ATOM    101  CD2 PHE A 114     -10.558  -1.257  17.479  1.00 18.39     0.007 A 
ENDBRANCH  95  96
ENDBRANCH  94  95
END_RES PHE A 114
BEGIN_RES VAL A 116
REMARK  1 active torsions:
REMARK  status: ('A' for Active; 'I' for Inactive)
REMARK   32  A    between atoms: CA   and  CB  
ROOT
ATOM    102  CA  VAL A 116      -2.467   0.283  18.565  1.00 13.48     0.180 C 
ENDROOT
BRANCH 102 103
ATOM    103  CB  VAL A 116      -3.101   1.238  19.599  1.00 20.86     0.009 C 
ATOM    104  CG1 VAL A 116      -3.067   2.671  19.061  1.00 25.01     0.012 C 
ATOM    105  CG2 VAL A 116      -4.508   0.805  19.940  1.00 25.34     0.012 C 
ENDBRANCH 102 103
END_RES VAL A 116
BEGIN_RES ILE A 123
REMARK  2 active torsions:
REMARK  status: ('A' for Active; 'I' for Inactive)
REMARK   33  A    between atoms: CA   and  CB  
REMARK   34  A    between atoms: CB   and  CG1 
ROOT
ATOM    106  CA  ILE A 123       1.557  -1.626  23.222  1.00 15.07     0.180 C 
ENDROOT
BRANCH 106 107
ATOM    107  CB  ILE A 123       1.697  -0.112  23.461  1.00 14.41     0.013 C 
ATOM    108  CG2 ILE A 123       3.113   0.213  23.904  1.00 18.35     0.012 C 
BRANCH 107 109
ATOM    109  CG1 ILE A 123       1.351   0.660  22.190  1.00 15.23     0.002 C 
ATOM    110  CD1 ILE A 123       0.263   1.688  22.383  1.00 14.67     0.005 C 
ENDBRANCH 107 109
ENDBRANCH 106 107
END_RES ILE A 123
BEGIN_RES LEU A 124
REMARK  2 active torsions:
REMARK  status: ('A' for Active; 'I' for Inactive)
REMARK   35  A    between atoms: CA   and  CB  
REMARK   36  A    between atoms: CB   and  CG  
ROOT
ATOM    111  CA  LEU A 124      -2.057  -2.686  23.524  1.00 11.86     0.177 C 
ENDROOT
BRANCH 111 112
ATOM    112  CB  LEU A 124      -2.698  -1.652  24.429  1.00 14.60     0.038 C 
BRANCH 112 113
ATOM    113  CG  LEU A 124      -2.616  -0.250  23.843  1.00 16.19    -0.020 C 
ATOM    114  CD1 LEU A 124      -4.032   0.213  23.450  1.00 22.07     0.009 C 
ATOM    115  CD2 LEU A 124      -1.979   0.678  24.847  1.00  9.12     0.009 C 
ENDBRANCH 112 113
ENDBRANCH 111 112
END_RES LEU A 124
BEGIN_RES PHE A 126
REMARK  2 active torsions:
REMARK  status: ('A' for Active; 'I' for Inactive)
REMARK   37  A    between atoms: CA   and  CB  
REMARK   38  A    between atoms: CB   and  CG  
ROOT
ATOM    116  CA  PHE A 126      -8.784  -4.792  22.233  1.00 23.15     0.180 C 
ENDROOT
BRANCH 116 117
ATOM    117  CB  PHE A 126      -9.823  -4.011  21.461  1.00 20.65     0.073 C 
BRANCH 117 118
ATOM    118  CG  PHE A 126     -10.942  -3.530  22.299  1.00 23.65    -0.056 A 
ATOM    119  CD2 PHE A 126     -10.748  -2.518  23.223  1.00 36.63     0.007 A 
ATOM    120  CE2 PHE A 126     -11.810  -2.063  24.016  1.00 36.27     0.001 A 
ATOM    121  CZ  PHE A 126     -13.069  -2.629  23.878  1.00 18.06     0.000 A 
ATOM    122  CE1 PHE A 126     -13.266  -3.637  22.956  1.00  5.50     0.001 A 
ATOM    123  CD1 PHE A 126     -12.205  -4.083  22.169  1.00 15.29     0.007 A 
ENDBRANCH 117 118
ENDBRANCH 116 117
END_RES PHE A 126
BEGIN_RES TRP A 131
REMARK  2 active torsions:
REMARK  status: ('A' for Active; 'I' for Inactive)
REMARK   39  A    between atoms: CA   and  CB  
REMARK   40  A    between atoms: CB   and  CG  
ROOT
ATOM    124  CA  TRP A 131      -8.096  -3.335  26.542  1.00 14.52     0.181 C 
ENDROOT
BRANCH 124 125
ATOM    125  CB  TRP A 131      -7.651  -1.877  26.607  1.00 13.06     0.075 C 
BRANCH 125 126
ATOM    126  CG  TRP A 131      -8.029  -1.057  25.393  1.00 16.97    -0.028 A 
ATOM    127  CD2 TRP A 131      -9.104  -0.119  25.300  1.00 11.34    -0.002 A 
ATOM    128  CE2 TRP A 131      -9.087   0.416  23.997  1.00  5.87     0.042 A 
ATOM    129  CE3 TRP A 131     -10.082   0.321  26.198  1.00  3.80     0.014 A 
ATOM    130  CZ2 TRP A 131     -10.010   1.372  23.569  1.00  1.35     0.030 A 
ATOM    131  NE1 TRP A 131      -8.050  -0.172  23.325  1.00 13.90    -0.365 N 
ATOM    132  CH2 TRP A 131     -10.958   1.786  24.471  1.00  1.00     0.002 A 
ATOM    133  CZ3 TRP A 131     -11.001   1.267  25.779  1.00  1.00     0.001 A 
ATOM    134  CD1 TRP A 131      -7.418  -1.055  24.169  1.00 17.22     0.096 A 
ATOM    135  H07 TRP A 131      -7.790   0.013  22.366  1.00 13.90     0.165 HD
ENDBRANCH 125 126
ENDBRANCH 124 125
END_RES TRP A 131
BEGIN_RES LEU A 148
REMARK  2 active torsions:
REMARK  status: ('A' for Active; 'I' for Inactive)
REMARK   41  A    between atoms: CA   and  CB  
REMARK   42  A    between atoms: CB   and  CG  
ROOT
ATOM    136  CA  LEU A 148      -9.018   3.259  29.295  1.00 16.99     0.177 C 
ENDROOT
BRANCH 136 137
ATOM    137  CB  LEU A 148      -8.166   2.574  28.236  1.00  6.39     0.038 C 
BRANCH 137 138
ATOM    138  CG  LEU A 148      -7.533   3.365  27.109  1.00  1.00    -0.020 C 
ATOM    139  CD2 LEU A 148      -8.593   4.035  26.284  1.00  1.00     0.009 C 
ATOM    140  CD1 LEU A 148      -6.718   2.410  26.257  1.00  2.71     0.009 C 
ENDBRANCH 137 138
ENDBRANCH 136 137
END_RES LEU A 148
BEGIN_RES THR A 154
REMARK  2 active torsions:
REMARK  status: ('A' for Active; 'I' for Inactive)
REMARK   43  A    between atoms: CA   and  CB  
REMARK   44  A    between atoms: CB   and  OG1 
ROOT
ATOM    141  CA  THR A 154     -15.990   3.959  24.426  1.00 20.45     0.205 C 
ENDROOT
BRANCH 141 142
ATOM    142  CB  THR A 154     -14.777   4.829  24.694  1.00 16.79     0.146 C 
ATOM    143  CG2 THR A 154     -13.584   4.320  23.909  1.00 20.24     0.042 C 
BRANCH 142 144
ATOM    144  OG1 THR A 154     -15.066   6.170  24.278  1.00 18.84    -0.393 OA
ATOM    145  H06 THR A 154     -14.641   6.789  24.876  1.00 18.84     0.210 HD
ENDBRANCH 142 144
ENDBRANCH 141 142
END_RES THR A 154
BEGIN_RES VAL A 158
REMARK  1 active torsions:
REMARK  status: ('A' for Active; 'I' for Inactive)
REMARK   45  A    between atoms: CA   and  CB  
ROOT
ATOM    146  CA  VAL A 158     -15.487  -0.189  19.892  1.00 15.49     0.180 C 
ENDROOT
BRANCH 146 147
ATOM    147  CB  VAL A 158     -14.291  -0.273  20.822  1.00  6.52     0.009 C 
ATOM    148  CG1 VAL A 158     -13.220  -1.169  20.244  1.00  1.00     0.012 C 
ATOM    149  CG2 VAL A 158     -13.760   1.109  21.047  1.00  5.99     0.012 C 
ENDBRANCH 146 147
END_RES VAL A 158
BEGIN_RES LEU A 161
REMARK  2 active torsions:
REMARK  status: ('A' for Active; 'I' for Inactive)
REMARK   46  A    between atoms: CA   and  CB  
REMARK   47  A    between atoms: CB   and  CG  
ROOT
ATOM    150  CA  LEU A 161     -18.031  -1.858  15.935  1.00 13.31     0.177 C 
ENDROOT
BRANCH 150 151
ATOM    151  CB  LEU A 161     -17.046  -0.706  16.001  1.00 14.13     0.038 C 
BRANCH 151 152
ATOM    152  CG  LEU A 161     -17.598   0.674  15.664  1.00 19.39    -0.020 C 
ATOM    153  CD2 LEU A 161     -18.067   0.713  14.230  1.00 27.75     0.009 C 
ATOM    154  CD1 LEU A 161     -16.516   1.697  15.881  1.00 18.59     0.009 C 
ENDBRANCH 151 152
ENDBRANCH 150 151
END_RES LEU A 161
BEGIN_RES GLN A 168
REMARK  3 active torsions:
REMARK  status: ('A' for Active; 'I' for Inactive)
REMARK   48  A    between atoms: CA   and  CB  
REMARK   49  A    between atoms: CB   and  CG  
REMARK   50  A    between atoms: CG   and  CD  
REMARK       I    between atoms: CD   and  NE2 
ROOT
ATOM    155  CA  GLN A 168     -22.035  -6.020   8.155  1.00 30.94     0.177 C 
ENDROOT
BRANCH 155 156
ATOM    156  CB  GLN A 168     -23.054  -5.218   8.946  1.00 41.76     0.044 C 
BRANCH 156 157
ATOM    157  CG  GLN A 168     -24.483  -5.440   8.529  1.00 61.20     0.105 C 
BRANCH 157 158
ATOM    158  CD  GLN A 168     -24.999  -4.313   7.656  1.00 75.49     0.215 C 
ATOM    159  NE2 GLN A 168     -24.817  -4.454   6.342  1.00 85.00    -0.370 N 
ATOM    160  H06 GLN A 168     -25.137  -3.735   5.708  1.00 85.00     0.159 HD
ATOM    161  H07 GLN A 168     -24.359  -5.279   5.981  1.00 85.00     0.159 HD
ATOM    162  OE1 GLN A 168     -25.550  -3.321   8.153  1.00 73.64    -0.274 OA
ENDBRANCH 157 158
ENDBRANCH 156 157
ENDBRANCH 155 156
END_RES GLN A 168
ENDMDL
MODEL 2
REMARK VINA RESULT:      -7.3      2.479      7.145
REMARK  Name = human_CD1d_ODG_pred.rank_0
REMARK  9 active torsions:
REMARK  status: ('A' for Active; 'I' for Inactive)
REMARK    1  A    between atoms: C_7  and  O_8
REMARK    2  A    between atoms: O_8  and  C_9
REMARK    3  A    between atoms: C_9  and  C_11
REMARK    4  A    between atoms: C_11  and  C_13
REMARK    5  A    between atoms: C_13  and  C_14
REMARK    6  A    between atoms: C_14  and  C_15
REMARK    7  A    between atoms: C_15  and  C_16
REMARK    8  A    between atoms: C_16  and  C_17
REMARK    9  A    between atoms: C_19  and  C_20
REMARK                            x       y       z     vdW  Elec       q    Type
REMARK                         _______ _______ _______ _____ _____    ______ ____
ROOT
ATOM      1  C   UNL     1      -0.205   6.181  25.037  0.00  0.00    +0.000 C 
ATOM      2  O   UNL     1       0.140   6.390  26.403  0.00  0.00    +0.000 OA
ATOM      3  C   UNL     1      -1.064   4.932  24.900  0.00  0.00    +0.000 C 
ATOM      4  O   UNL     1      -0.324   3.807  25.265  0.00  0.00    +0.000 OA
ATOM      5  C   UNL     1      -1.535   4.787  23.459  0.00  0.00    +0.000 C 
ATOM      6  O   UNL     1      -2.448   3.673  23.392  0.00  0.00    +0.000 OA
ATOM      7  C   UNL     1      -2.313   6.056  23.056  0.00  0.00    +0.000 C 
ATOM      8  O   UNL     1      -1.441   7.221  23.134  0.00  0.00    +0.000 OA
ATOM      9  C   UNL     1      -0.980   7.402  24.529  0.00  0.00    +0.000 C 
ENDROOT
BRANCH   9  11
ATOM     10  O   UNL     1       1.031   8.351  23.704  0.00  0.00    +0.000 OA
ATOM     11  C   UNL     1      -0.092   8.643  24.539  0.00  0.00    +0.000 C 
ENDBRANCH   9  11
BRANCH   7  12
ATOM     12  O   UNL     1      -2.682   5.917  21.690  0.00  0.00    +0.000 OA
BRANCH  12  13
ATOM     13  C   UNL     1      -4.090   6.034  21.492  0.00  0.00    +0.000 C 
BRANCH  13  14
ATOM     14  C   UNL     1      -4.263   6.444  20.006  0.00  0.00    +0.000 C 
BRANCH  14  15
ATOM     15  C   UNL     1      -5.754   6.510  19.673  0.00  0.00    +0.000 C 
BRANCH  15  16
ATOM     16  C   UNL     1      -5.929   6.346  18.148  0.00  0.00    +0.000 C 
BRANCH  16  17
ATOM     17  C   UNL     1      -5.222   7.474  17.468  0.00  0.00    +0.000 C 
BRANCH  17  18
ATOM     18  C   UNL     1      -6.021   7.866  16.218  0.00  0.00    +0.000 C 
BRANCH  18  19
ATOM     19  C   UNL     1      -5.920   9.354  16.047  0.00  0.00    +0.000 C 
ATOM     20  C   UNL     1      -7.175   9.864  15.355  0.00  0.00    +0.000 C 
ENDBRANCH  18  19
ENDBRANCH  17  18
ENDBRANCH  16  17
ENDBRANCH  15  16
ENDBRANCH  14  15
ENDBRANCH  13  14
ENDBRANCH  12  13
ENDBRANCH   7  12
TORSDOF 9
BEGIN_RES LEU A  10
REMARK  2 active torsions:
REMARK  status: ('A' for Active; 'I' for Inactive)
REMARK    1  A    between atoms: CA   and  CB  
REMARK    2  A    between atoms: CB   and  CG  
ROOT
ATOM      1  CA  LEU A  10     -10.775  -4.871   5.898  1.00 25.14     0.177 C 
ENDROOT
BRANCH   1   2
ATOM      2  CB  LEU A  10     -12.191  -4.387   6.226  1.00 17.87     0.038 C 
BRANCH   2   3
ATOM      3  CG  LEU A  10     -12.389  -2.875   6.095  1.00 24.95    -0.020 C 
ATOM      4  CD2 LEU A  10     -13.673  -2.495   6.752  1.00 26.38     0.009 C 
ATOM      5  CD1 LEU A  10     -12.388  -2.452   4.636  1.00 28.12     0.009 C 
ENDBRANCH   2   3
ENDBRANCH   1   2
END_RES LEU A  10
BEGIN_RES CYS A  12
REMARK  2 active torsions:
REMARK  status: ('A' for Active; 'I' for Inactive)
REMARK    3  A    between atoms: CA   and  CB  
REMARK    4  A    between atoms: CB   and  SG  
ROOT
ATOM      6  CA  CYS A  12      -8.555   0.470   8.750  1.00 23.16     0.185 C 
ENDROOT
BRANCH   6   7
ATOM      7  CB  CYS A  12      -9.828   0.763   9.555  1.00 20.43     0.105 C 
BRANCH   7   8
ATOM      8  SG  CYS A  12     -11.266   1.335   8.598  1.00 24.64    -0.180 SA
ATOM      9  H04 CYS A  12     -11.346   2.670   8.666  1.00 24.64     0.101 HD
ENDBRANCH   7   8
ENDBRANCH   6   7
END_RES CYS A  12
BEGIN_RES GLN A  14
REMARK  3 active torsions:
REMARK  status: ('A' for Active; 'I' for Inactive)
REMARK    5  A    between atoms: CA   and  CB  
REMARK    6  A    between atoms: CB   and  CG  
REMARK    7  A    between atoms: CG   and  CD  
REMARK       I    between atoms: CD   and  NE2 
ROOT
ATOM     10  CA  GLN A  14      -4.645   5.402  11.377  1.00 10.43     0.177 C 
ENDROOT
BRANCH  10  11
ATOM     11  CB  GLN A  14      -5.541   5.549  12.608  1.00 14.45     0.044 C 
BRANCH  11  12
ATOM     12  CG  GLN A  14      -6.591   6.629  12.482  1.00 13.74     0.105 C 
BRANCH  12  13
ATOM     13  CD  GLN A  14      -5.991   8.013  12.413  1.00 16.29     0.215 C 
ATOM     14  NE2 GLN A  14      -6.676   8.917  11.748  1.00  8.57    -0.370 N 
ATOM     15  H06 GLN A  14      -6.325   9.860  11.670  1.00  8.57     0.159 HD
ATOM     16  H07 GLN A  14      -7.554   8.668  11.316  1.00  8.57     0.159 HD
ATOM     17  OE1 GLN A  14      -4.926   8.265  12.955  1.00 23.55    -0.274 OA
ENDBRANCH  12  13
ENDBRANCH  11  12
ENDBRANCH  10  11
END_RES GLN A  14
BEGIN_RES SER A  16
REMARK  2 active torsions:
REMARK  status: ('A' for Active; 'I' for Inactive)
REMARK    8  A    between atoms: CA   and  CB  
REMARK    9  A    between atoms: CB   and  OG  
ROOT
ATOM     18  CA  SER A  16      -1.305  10.019  14.282  1.00  2.34     0.200 C 
ENDROOT
BRANCH  18  19
ATOM     19  CB  SER A  16      -2.242   9.935  15.479  1.00  3.12     0.199 C 
BRANCH  19  20
ATOM     20  OG  SER A  16      -2.176   8.648  16.067  1.00  1.00    -0.398 OA
ATOM     21  H04 SER A  16      -1.490   8.133  15.635  1.00  1.00     0.209 HD
ENDBRANCH  19  20
ENDBRANCH  18  19
END_RES SER A  16
BEGIN_RES LEU A  32
REMARK  2 active torsions:
REMARK  status: ('A' for Active; 'I' for Inactive)
REMARK   10  A    between atoms: CA   and  CB  
REMARK   11  A    between atoms: CB   and  CG  
ROOT
ATOM     22  CA  LEU A  32     -10.272  -4.106   1.587  1.00 16.16     0.177 C 
ENDROOT
BRANCH  22  23
ATOM     23  CB  LEU A  32     -11.613  -3.858   0.880  1.00 12.35     0.038 C 
BRANCH  23  24
ATOM     24  CG  LEU A  32     -12.578  -5.050   1.044  1.00  9.77    -0.020 C 
ATOM     25  CD1 LEU A  32     -13.024  -5.172   2.481  1.00  4.35     0.009 C 
ATOM     26  CD2 LEU A  32     -13.780  -4.895   0.150  1.00 10.60     0.009 C 
ENDBRANCH  23  24
ENDBRANCH  22  23
END_RES LEU A  32
BEGIN_RES HIS A  38
REMARK  2 active torsions:
REMARK  status: ('A' for Active; 'I' for Inactive)
REMARK   12  A    between atoms: CA   and  CB  
REMARK   13  A    between atoms: CB   and  CG  
ROOT
ATOM     27  CA  HIS A  38     -10.959   4.941   1.621  1.00 16.94     0.182 C 
ENDROOT
BRANCH  27  28
ATOM     28  CB  HIS A  38     -11.810   4.840   2.881  1.00 15.47     0.095 C 
BRANCH  28  29
ATOM     29  CG  HIS A  38     -12.999   3.946   2.736  1.00 18.62     0.053 A 
ATOM     30  CD2 HIS A  38     -14.164   4.119   2.066  1.00 15.06     0.116 A 
ATOM     31  NE2 HIS A  38     -14.899   2.974   2.237  1.00 18.12    -0.359 N 
ATOM     32  CE1 HIS A  38     -14.214   2.130   2.985  1.00 14.78     0.207 A 
ATOM     33  H06 HIS A  38     -15.818   2.804   1.853  1.00 18.12     0.166 HD
ATOM     34  ND1 HIS A  38     -13.064   2.692   3.301  1.00 16.58    -0.247 NA
ENDBRANCH  28  29
ENDBRANCH  27  28
END_RES HIS A  38
BEGIN_RES TRP A  63
REMARK  2 active torsions:
REMARK  status: ('A' for Active; 'I' for Inactive)
REMARK   14  A    between atoms: CA   and  CB  
REMARK   15  A    between atoms: CB   and  CG  
ROOT
ATOM     35  CA  TRP A  63     -22.437   6.257   6.543  1.00 27.04     0.181 C 
ENDROOT
BRANCH  35  36
ATOM     36  CB  TRP A  63     -22.360   6.642   5.068  1.00 31.37     0.075 C 
BRANCH  36  37
ATOM     37  CG  TRP A  63     -20.953   6.781   4.527  1.00 34.37    -0.028 A 
ATOM     38  CD2 TRP A  63     -19.886   5.827   4.629  1.00 33.79    -0.002 A 
ATOM     39  CE3 TRP A  63     -19.750   4.583   5.247  1.00 32.99     0.014 A 
ATOM     40  CE2 TRP A  63     -18.786   6.355   3.918  1.00 35.84     0.042 A 
ATOM     41  CZ3 TRP A  63     -18.540   3.913   5.140  1.00 32.93     0.001 A 
ATOM     42  CH2 TRP A  63     -17.464   4.464   4.426  1.00 39.24     0.002 A 
ATOM     43  CZ2 TRP A  63     -17.568   5.682   3.808  1.00 37.99     0.030 A 
ATOM     44  NE1 TRP A  63     -19.170   7.567   3.413  1.00 37.98    -0.365 N 
ATOM     45  H06 TRP A  63     -18.592   8.181   2.857  1.00 37.98     0.165 HD
ATOM     46  CD1 TRP A  63     -20.469   7.813   3.786  1.00 38.16     0.096 A 
ENDBRANCH  36  37
ENDBRANCH  35  36
END_RES TRP A  63
BEGIN_RES LEU A  66
REMARK  2 active torsions:
REMARK  status: ('A' for Active; 'I' for Inactive)
REMARK   16  A    between atoms: CA   and  CB  
REMARK   17  A    between atoms: CB   and  CG  
ROOT
ATOM     47  CA  LEU A  66     -20.004   6.489  11.120  1.00 10.90     0.177 C 
ENDROOT
BRANCH  47  48
ATOM     48  CB  LEU A  66     -19.626   5.453  10.069  1.00 13.57     0.038 C 
BRANCH  48  49
ATOM     49  CG  LEU A  66     -19.366   4.027  10.554  1.00  8.73    -0.020 C 
ATOM     50  CD1 LEU A  66     -18.233   3.402   9.783  1.00 14.23     0.009 C 
ATOM     51  CD2 LEU A  66     -19.027   4.076  12.022  1.00  1.92     0.009 C 
ENDBRANCH  48  49
ENDBRANCH  47  48
END_RES LEU A  66
BEGIN_RES PHE A  70
REMARK  2 active torsions:
REMARK  status: ('A' for Active; 'I' for Inactive)
REMARK   18  A    between atoms: CA   and  CB  
REMARK   19  A    between atoms: CB   and  CG  
ROOT
ATOM     52  CA  PHE A  70     -14.974   9.434  13.165  1.00  8.78     0.180 C 
ENDROOT
BRANCH  52  53
ATOM     53  CB  PHE A  70     -14.707   9.132  11.681  1.00  6.33     0.073 C 
BRANCH  53  54
ATOM     54  CG  PHE A  70     -13.936   7.859  11.459  1.00  3.42    -0.056 A 
ATOM     55  CD1 PHE A  70     -13.700   7.380  10.179  1.00 13.88     0.007 A 
ATOM     56  CE1 PHE A  70     -13.020   6.165   9.980  1.00 12.71     0.001 A 
ATOM     57  CZ  PHE A  70     -12.572   5.424  11.074  1.00  4.21     0.000 A 
ATOM     58  CE2 PHE A  70     -12.800   5.893  12.355  1.00  2.83     0.001 A 
ATOM     59  CD2 PHE A  70     -13.480   7.108  12.543  1.00  1.00     0.007 A 
ENDBRANCH  53  54
ENDBRANCH  52  53
END_RES PHE A  70
BEGIN_RES TYR A  73
REMARK  3 active torsions:
REMARK  status: ('A' for Active; 'I' for Inactive)
REMARK   20  A    between atoms: CA   and  CB  
REMARK   21  A    between atoms: CB   and  CG  
REMARK   22  A    between atoms: CZ   and  OH  
ROOT
ATOM     60  CA  TYR A  73     -13.212  10.166  17.260  1.00 12.17     0.180 C 
ENDROOT
BRANCH  60  61
ATOM     61  CB  TYR A  73     -13.301   8.846  16.517  1.00 12.84     0.073 C 
BRANCH  61  62
ATOM     62  CG  TYR A  73     -13.481   7.678  17.422  1.00 15.89    -0.056 A 
ATOM     63  CD1 TYR A  73     -13.464   7.830  18.791  1.00 16.00     0.010 A 
ATOM     64  CE1 TYR A  73     -13.602   6.733  19.641  1.00 13.55     0.037 A 
ATOM     65  CZ  TYR A  73     -13.757   5.472  19.099  1.00 18.13     0.065 A 
ATOM     66  CE2 TYR A  73     -13.778   5.293  17.736  1.00 15.89     0.037 A 
ATOM     67  CD2 TYR A  73     -13.641   6.398  16.904  1.00 21.86     0.010 A 
BRANCH  65  68
ATOM     68  OH  TYR A  73     -13.900   4.379  19.917  1.00 12.12    -0.361 OA
ATOM     69  H08 TYR A  73     -13.699   3.580  19.423  1.00 12.12     0.217 HD
ENDBRANCH  65  68
ENDBRANCH  61  62
ENDBRANCH  60  61
END_RES TYR A  73
BEGIN_RES PHE A  77
REMARK  2 active torsions:
REMARK  status: ('A' for Active; 'I' for Inactive)
REMARK   23  A    between atoms: CA   and  CB  
REMARK   24  A    between atoms: CB   and  CG  
ROOT
ATOM     70  CA  PHE A  77      -8.400  10.581  20.110  1.00 17.17     0.180 C 
ENDROOT
BRANCH  70  71
ATOM     71  CB  PHE A  77      -8.228   9.750  18.851  1.00 10.44     0.073 C 
BRANCH  71  72
ATOM     72  CG  PHE A  77      -8.886   8.408  18.920  1.00  6.07    -0.056 A 
ATOM     73  CD2 PHE A  77      -9.064   7.777  20.131  1.00  9.61     0.007 A 
ATOM     74  CE2 PHE A  77      -9.675   6.531  20.204  1.00  1.00     0.001 A 
ATOM     75  CZ  PHE A  77     -10.117   5.909  19.049  1.00  1.92     0.000 A 
ATOM     76  CE1 PHE A  77      -9.948   6.526  17.831  1.00  9.25     0.001 A 
ATOM     77  CD1 PHE A  77      -9.332   7.776  17.771  1.00  9.63     0.007 A 
ENDBRANCH  71  72
ENDBRANCH  70  71
END_RES PHE A  77
BEGIN_RES LEU A  96
REMARK  2 active torsions:
REMARK  status: ('A' for Active; 'I' for Inactive)
REMARK   25  A    between atoms: CA   and  CB  
REMARK   26  A    between atoms: CB   and  CG  
ROOT
ATOM     78  CA  LEU A  96       0.717   6.481  17.359  1.00 16.08     0.177 C 
ENDROOT
BRANCH  78  79
ATOM     79  CB  LEU A  96      -0.370   7.101  18.230  1.00 18.83     0.038 C 
BRANCH  79  80
ATOM     80  CG  LEU A  96      -0.147   6.941  19.734  1.00 19.03    -0.020 C 
ATOM     81  CD1 LEU A  96       0.440   5.574  19.997  1.00 28.17     0.009 C 
ATOM     82  CD2 LEU A  96       0.825   7.984  20.236  1.00 22.01     0.009 C 
ENDBRANCH  79  80
ENDBRANCH  78  79
END_RES LEU A  96
BEGIN_RES VAL A  98
REMARK  1 active torsions:
REMARK  status: ('A' for Active; 'I' for Inactive)
REMARK   27  A    between atoms: CA   and  CB  
ROOT
ATOM     83  CA  VAL A  98      -3.928   2.082  14.897  1.00 19.83     0.180 C 
ENDROOT
BRANCH  83  84
ATOM     84  CB  VAL A  98      -5.203   2.807  15.281  1.00 17.87     0.009 C 
ATOM     85  CG2 VAL A  98      -4.942   4.286  15.396  1.00 29.90     0.012 C 
ATOM     86  CG1 VAL A  98      -5.728   2.250  16.587  1.00 14.79     0.012 C 
ENDBRANCH  83  84
END_RES VAL A  98
BEGIN_RES ASN A 112
REMARK  2 active torsions:
REMARK  status: ('A' for Active; 'I' for Inactive)
REMARK   28  A    between atoms: CA   and  CB  
REMARK   29  A    between atoms: CB   and  CG  
REMARK       I    between atoms: CG   and  ND2 
ROOT
ATOM     87  CA  ASN A 112     -11.790  -8.793  14.069  1.00 37.70     0.185 C 
ENDROOT
BRANCH  87  88
ATOM     88  CB  ASN A 112     -12.992  -7.945  14.465  1.00 26.24     0.137 C 
BRANCH  88  89
ATOM     89  CG  ASN A 112     -13.813  -8.562  15.575  1.00 21.77     0.217 C 
ATOM     90  ND2 ASN A 112     -14.960  -9.135  15.210  1.00  9.31    -0.370 N 
ATOM     91  H04 ASN A 112     -15.554  -9.563  15.905  1.00  9.31     0.159 HD
ATOM     92  H05 ASN A 112     -15.234  -9.140  14.238  1.00  9.31     0.159 HD
ATOM     93  OD1 ASN A 112     -13.427  -8.523  16.749  1.00 21.61    -0.274 OA
ENDBRANCH  88  89
ENDBRANCH  87  88
END_RES ASN A 112
BEGIN_RES PHE A 114
REMARK  2 active torsions:
REMARK  status: ('A' for Active; 'I' for Inactive)
REMARK   30  A    between atoms: CA   and  CB  
REMARK   31  A    between atoms: CB   and  CG  
ROOT
ATOM     94  CA  PHE A 114      -7.754  -3.619  17.012  1.00 26.06     0.180 C 
ENDROOT
BRANCH  94  95
ATOM     95  CB  PHE A 114      -8.890  -3.080  17.867  1.00 19.95     0.073 C 
BRANCH  95  96
ATOM     96  CG  PHE A 114      -9.217  -1.650  17.584  1.00 17.65    -0.056 A 
ATOM     97  CD1 PHE A 114      -8.209  -0.698  17.464  1.00 13.01     0.007 A 
ATOM     98  CE1 PHE A 114      -8.513   0.637  17.230  1.00  6.74     0.001 A 
ATOM     99  CZ  PHE A 114      -9.840   1.038  17.108  1.00  6.27     0.000 A 
ATOM    100  CE2 PHE A 114     -10.853   0.099  17.224  1.00 17.36     0.001 A 
ATOM    101  CD2 PHE A 114     -10.539  -1.243  17.462  1.00 18.39     0.007 A 
ENDBRANCH  95  96
ENDBRANCH  94  95
END_RES PHE A 114
BEGIN_RES VAL A 116
REMARK  1 active torsions:
REMARK  status: ('A' for Active; 'I' for Inactive)
REMARK   32  A    between atoms: CA   and  CB  
ROOT
ATOM    102  CA  VAL A 116      -2.467   0.283  18.565  1.00 13.48     0.180 C 
ENDROOT
BRANCH 102 103
ATOM    103  CB  VAL A 116      -3.101   1.238  19.599  1.00 20.86     0.009 C 
ATOM    104  CG1 VAL A 116      -2.994   2.680  19.097  1.00 25.01     0.012 C 
ATOM    105  CG2 VAL A 116      -4.534   0.852  19.881  1.00 25.34     0.012 C 
ENDBRANCH 102 103
END_RES VAL A 116
BEGIN_RES ILE A 123
REMARK  2 active torsions:
REMARK  status: ('A' for Active; 'I' for Inactive)
REMARK   33  A    between atoms: CA   and  CB  
REMARK   34  A    between atoms: CB   and  CG1 
ROOT
ATOM    106  CA  ILE A 123       1.557  -1.626  23.222  1.00 15.07     0.180 C 
ENDROOT
BRANCH 106 107
ATOM    107  CB  ILE A 123       1.697  -0.112  23.461  1.00 14.41     0.013 C 
ATOM    108  CG2 ILE A 123       3.098   0.207  23.952  1.00 18.35     0.012 C 
BRANCH 107 109
ATOM    109  CG1 ILE A 123       1.401   0.657  22.176  1.00 15.23     0.002 C 
ATOM    110  CD1 ILE A 123       0.230   1.603  22.292  1.00 14.67     0.005 C 
ENDBRANCH 107 109
ENDBRANCH 106 107
END_RES ILE A 123
BEGIN_RES LEU A 124
REMARK  2 active torsions:
REMARK  status: ('A' for Active; 'I' for Inactive)
REMARK   35  A    between atoms: CA   and  CB  
REMARK   36  A    between atoms: CB   and  CG  
ROOT
ATOM    111  CA  LEU A 124      -2.057  -2.686  23.524  1.00 11.86     0.177 C 
ENDROOT
BRANCH 111 112
ATOM    112  CB  LEU A 124      -2.698  -1.652  24.429  1.00 14.60     0.038 C 
BRANCH 112 113
ATOM    113  CG  LEU A 124      -2.588  -0.246  23.858  1.00 16.19    -0.020 C 
ATOM    114  CD1 LEU A 124      -3.991   0.238  23.443  1.00 22.07     0.009 C 
ATOM    115  CD2 LEU A 124      -1.959   0.664  24.883  1.00  9.12     0.009 C 
ENDBRANCH 112 113
ENDBRANCH 111 112
END_RES LEU A 124
BEGIN_RES PHE A 126
REMARK  2 active torsions:
REMARK  status: ('A' for Active; 'I' for Inactive)
REMARK   37  A    between atoms: CA   and  CB  
REMARK   38  A    between atoms: CB   and  CG  
ROOT
ATOM    116  CA  PHE A 126      -8.784  -4.792  22.233  1.00 23.15     0.180 C 
ENDROOT
BRANCH 116 117
ATOM    117  CB  PHE A 126      -9.823  -4.011  21.461  1.00 20.65     0.073 C 
BRANCH 117 118
ATOM    118  CG  PHE A 126     -10.953  -3.549  22.295  1.00 23.65    -0.056 A 
ATOM    119  CD2 PHE A 126     -12.209  -4.114  22.157  1.00 36.63     0.007 A 
ATOM    120  CE2 PHE A 126     -13.279  -3.676  22.950  1.00 36.27     0.001 A 
ATOM    121  CZ  PHE A 126     -13.083  -2.667  23.881  1.00 18.06     0.000 A 
ATOM    122  CE1 PHE A 126     -11.830  -2.103  24.023  1.00  5.50     0.001 A 
ATOM    123  CD1 PHE A 126     -10.771  -2.547  23.232  1.00 15.29     0.007 A 
ENDBRANCH 117 118
ENDBRANCH 116 117
END_RES PHE A 126
BEGIN_RES TRP A 131
REMARK  2 active torsions:
REMARK  status: ('A' for Active; 'I' for Inactive)
REMARK   39  A    between atoms: CA   and  CB  
REMARK   40  A    between atoms: CB   and  CG  
ROOT
ATOM    124  CA  TRP A 131      -8.096  -3.335  26.542  1.00 14.52     0.181 C 
ENDROOT
BRANCH 124 125
ATOM    125  CB  TRP A 131      -7.651  -1.877  26.607  1.00 13.06     0.075 C 
BRANCH 125 126
ATOM    126  CG  TRP A 131      -8.044  -1.053  25.401  1.00 16.97    -0.028 A 
ATOM    127  CD2 TRP A 131      -9.125  -0.120  25.322  1.00 11.34    -0.002 A 
ATOM    128  CE2 TRP A 131      -9.123   0.421  24.022  1.00  5.87     0.042 A 
ATOM    129  CE3 TRP A 131     -10.099   0.309  26.231  1.00  3.80     0.014 A 
ATOM    130  CZ2 TRP A 131     -10.055   1.374  23.607  1.00  1.35     0.030 A 
ATOM    131  NE1 TRP A 131      -8.088  -0.156  23.338  1.00 13.90    -0.365 N 
ATOM    132  CH2 TRP A 131     -10.998   1.778  24.520  1.00  1.00     0.002 A 
ATOM    133  CZ3 TRP A 131     -11.026   1.251  25.825  1.00  1.00     0.001 A 
ATOM    134  CD1 TRP A 131      -7.444  -1.040  24.171  1.00 17.22     0.096 A 
ATOM    135  H07 TRP A 131      -7.838   0.035  22.378  1.00 13.90     0.165 HD
ENDBRANCH 125 126
ENDBRANCH 124 125
END_RES TRP A 131
BEGIN_RES LEU A 148
REMARK  2 active torsions:
REMARK  status: ('A' for Active; 'I' for Inactive)
REMARK   41  A    between atoms: CA   and  CB  
REMARK   42  A    between atoms: CB   and  CG  
ROOT
ATOM    136  CA  LEU A 148      -9.018   3.259  29.295  1.00 16.99     0.177 C 
ENDROOT
BRANCH 136 137
ATOM    137  CB  LEU A 148      -8.166   2.574  28.236  1.00  6.39     0.038 C 
BRANCH 137 138
ATOM    138  CG  LEU A 148      -7.538   3.364  27.106  1.00  1.00    -0.020 C 
ATOM    139  CD2 LEU A 148      -8.601   4.037  26.287  1.00  1.00     0.009 C 
ATOM    140  CD1 LEU A 148      -6.730   2.407  26.249  1.00  2.71     0.009 C 
ENDBRANCH 137 138
ENDBRANCH 136 137
END_RES LEU A 148
BEGIN_RES THR A 154
REMARK  2 active torsions:
REMARK  status: ('A' for Active; 'I' for Inactive)
REMARK   43  A    between atoms: CA   and  CB  
REMARK   44  A    between atoms: CB   and  OG1 
ROOT
ATOM    141  CA  THR A 154     -15.990   3.959  24.426  1.00 20.45     0.205 C 
ENDROOT
BRANCH 141 142
ATOM    142  CB  THR A 154     -14.777   4.829  24.694  1.00 16.79     0.146 C 
ATOM    143  CG2 THR A 154     -13.681   4.522  23.692  1.00 20.24     0.042 C 
BRANCH 142 144
ATOM    144  OG1 THR A 154     -15.154   6.205  24.561  1.00 18.84    -0.393 OA
ATOM    145  H06 THR A 154     -14.589   6.631  23.912  1.00 18.84     0.210 HD
ENDBRANCH 142 144
ENDBRANCH 141 142
END_RES THR A 154
BEGIN_RES VAL A 158
REMARK  1 active torsions:
REMARK  status: ('A' for Active; 'I' for Inactive)
REMARK   45  A    between atoms: CA   and  CB  
ROOT
ATOM    146  CA  VAL A 158     -15.487  -0.189  19.892  1.00 15.49     0.180 C 
ENDROOT
BRANCH 146 147
ATOM    147  CB  VAL A 158     -14.291  -0.273  20.822  1.00  6.52     0.009 C 
ATOM    148  CG1 VAL A 158     -13.243  -1.212  20.270  1.00  1.00     0.012 C 
ATOM    149  CG2 VAL A 158     -13.726   1.102  21.003  1.00  5.99     0.012 C 
ENDBRANCH 146 147
END_RES VAL A 158
BEGIN_RES LEU A 161
REMARK  2 active torsions:
REMARK  status: ('A' for Active; 'I' for Inactive)
REMARK   46  A    between atoms: CA   and  CB  
REMARK   47  A    between atoms: CB   and  CG  
ROOT
ATOM    150  CA  LEU A 161     -18.031  -1.858  15.935  1.00 13.31     0.177 C 
ENDROOT
BRANCH 150 151
ATOM    151  CB  LEU A 161     -17.046  -0.706  16.001  1.00 14.13     0.038 C 
BRANCH 151 152
ATOM    152  CG  LEU A 161     -17.531   0.629  15.450  1.00 19.39    -0.020 C 
ATOM    153  CD2 LEU A 161     -17.409   0.649  13.946  1.00 27.75     0.009 C 
ATOM    154  CD1 LEU A 161     -16.703   1.733  16.050  1.00 18.59     0.009 C 
ENDBRANCH 151 152
ENDBRANCH 150 151
END_RES LEU A 161
BEGIN_RES GLN A 168
REMARK  3 active torsions:
REMARK  status: ('A' for Active; 'I' for Inactive)
REMARK   48  A    between atoms: CA   and  CB  
REMARK   49  A    between atoms: CB   and  CG  
REMARK   50  A    between atoms: CG   and  CD  
REMARK       I    between atoms: CD   and  NE2 
ROOT
ATOM    155  CA  GLN A 168     -22.035  -6.020   8.155  1.00 30.94     0.177 C 
ENDROOT
BRANCH 155 156
ATOM    156  CB  GLN A 168     -23.054  -5.218   8.946  1.00 41.76     0.044 C 
BRANCH 156 157
ATOM    157  CG  GLN A 168     -24.412  -5.858   9.043  1.00 61.20     0.105 C 
BRANCH 157 158
ATOM    158  CD  GLN A 168     -24.909  -5.916  10.475  1.00 75.49     0.215 C 
ATOM    159  NE2 GLN A 168     -23.985  -6.146  11.410  1.00 85.00    -0.370 N 
ATOM    160  H06 GLN A 168     -24.254  -6.199  12.383  1.00 85.00     0.159 HD
ATOM    161  H07 GLN A 168     -23.018  -6.267  11.146  1.00 85.00     0.159 HD
ATOM    162  OE1 GLN A 168     -26.109  -5.764  10.742  1.00 73.64    -0.274 OA
ENDBRANCH 157 158
ENDBRANCH 156 157
ENDBRANCH 155 156
END_RES GLN A 168
ENDMDL
MODEL 3
REMARK VINA RESULT:      -7.1      1.079      2.463
REMARK  Name = human_CD1d_ODG_pred.rank_0
REMARK  9 active torsions:
REMARK  status: ('A' for Active; 'I' for Inactive)
REMARK    1  A    between atoms: C_7  and  O_8
REMARK    2  A    between atoms: O_8  and  C_9
REMARK    3  A    between atoms: C_9  and  C_11
REMARK    4  A    between atoms: C_11  and  C_13
REMARK    5  A    between atoms: C_13  and  C_14
REMARK    6  A    between atoms: C_14  and  C_15
REMARK    7  A    between atoms: C_15  and  C_16
REMARK    8  A    between atoms: C_16  and  C_17
REMARK    9  A    between atoms: C_19  and  C_20
REMARK                            x       y       z     vdW  Elec       q    Type
REMARK                         _______ _______ _______ _____ _____    ______ ____
ROOT
ATOM      1  C   UNL     1     -13.864  -0.796  11.180  0.00  0.00    +0.000 C 
ATOM      2  O   UNL     1     -13.255  -1.394  10.039  0.00  0.00    +0.000 OA
ATOM      3  C   UNL     1     -13.090  -1.163  12.438  0.00  0.00    +0.000 C 
ATOM      4  O   UNL     1     -13.173  -2.538  12.660  0.00  0.00    +0.000 OA
ATOM      5  C   UNL     1     -13.668  -0.417  13.633  0.00  0.00    +0.000 C 
ATOM      6  O   UNL     1     -12.835  -0.685  14.778  0.00  0.00    +0.000 OA
ATOM      7  C   UNL     1     -13.611   1.099  13.354  0.00  0.00    +0.000 C 
ATOM      8  O   UNL     1     -14.417   1.421  12.184  0.00  0.00    +0.000 OA
ATOM      9  C   UNL     1     -13.869   0.726  10.998  0.00  0.00    +0.000 C 
ENDROOT
BRANCH   9  11
ATOM     10  O   UNL     1     -15.936   1.697  10.359  0.00  0.00    +0.000 OA
ATOM     11  C   UNL     1     -14.746   1.122   9.814  0.00  0.00    +0.000 C 
ENDBRANCH   9  11
BRANCH   7  12
ATOM     12  O   UNL     1     -14.214   1.761  14.458  0.00  0.00    +0.000 OA
BRANCH  12  13
ATOM     13  C   UNL     1     -14.664   3.073  14.126  0.00  0.00    +0.000 C 
BRANCH  13  14
ATOM     14  C   UNL     1     -14.053   4.002  15.207  0.00  0.00    +0.000 C 
BRANCH  14  15
ATOM     15  C   UNL     1     -13.237   3.162  16.190  0.00  0.00    +0.000 C 
BRANCH  15  16
ATOM     16  C   UNL     1     -11.796   3.712  16.235  0.00  0.00    +0.000 C 
BRANCH  16  17
ATOM     17  C   UNL     1     -11.736   4.948  15.396  0.00  0.00    +0.000 C 
BRANCH  17  18
ATOM     18  C   UNL     1     -10.282   5.434  15.347  0.00  0.00    +0.000 C 
BRANCH  18  19
ATOM     19  C   UNL     1      -9.386   4.233  15.437  0.00  0.00    +0.000 C 
ATOM     20  C   UNL     1      -8.676   4.039  14.106  0.00  0.00    +0.000 C 
ENDBRANCH  18  19
ENDBRANCH  17  18
ENDBRANCH  16  17
ENDBRANCH  15  16
ENDBRANCH  14  15
ENDBRANCH  13  14
ENDBRANCH  12  13
ENDBRANCH   7  12
TORSDOF 9
BEGIN_RES LEU A  10
REMARK  2 active torsions:
REMARK  status: ('A' for Active; 'I' for Inactive)
REMARK    1  A    between atoms: CA   and  CB  
REMARK    2  A    between atoms: CB   and  CG  
ROOT
ATOM      1  CA  LEU A  10     -10.775  -4.871   5.898  1.00 25.14     0.177 C 
ENDROOT
BRANCH   1   2
ATOM      2  CB  LEU A  10     -12.191  -4.387   6.226  1.00 17.87     0.038 C 
BRANCH   2   3
ATOM      3  CG  LEU A  10     -12.427  -2.898   5.965  1.00 24.95    -0.020 C 
ATOM      4  CD2 LEU A  10     -13.689  -2.480   6.641  1.00 26.38     0.009 C 
ATOM      5  CD1 LEU A  10     -12.497  -2.612   4.475  1.00 28.12     0.009 C 
ENDBRANCH   2   3
ENDBRANCH   1   2
END_RES LEU A  10
BEGIN_RES CYS A  12
REMARK  2 active torsions:
REMARK  status: ('A' for Active; 'I' for Inactive)
REMARK    3  A    between atoms: CA   and  CB  
REMARK    4  A    between atoms: CB   and  SG  
ROOT
ATOM      6  CA  CYS A  12      -8.555   0.470   8.750  1.00 23.16     0.185 C 
ENDROOT
BRANCH   6   7
ATOM      7  CB  CYS A  12      -9.828   0.763   9.555  1.00 20.43     0.105 C 
BRANCH   7   8
ATOM      8  SG  CYS A  12     -10.955   2.004   8.847  1.00 24.64    -0.180 SA
ATOM      9  H04 CYS A  12     -11.225   2.939   9.767  1.00 24.64     0.101 HD
ENDBRANCH   7   8
ENDBRANCH   6   7
END_RES CYS A  12
BEGIN_RES GLN A  14
REMARK  3 active torsions:
REMARK  status: ('A' for Active; 'I' for Inactive)
REMARK    5  A    between atoms: CA   and  CB  
REMARK    6  A    between atoms: CB   and  CG  
REMARK    7  A    between atoms: CG   and  CD  
REMARK       I    between atoms: CD   and  NE2 
ROOT
ATOM     10  CA  GLN A  14      -4.645   5.402  11.377  1.00 10.43     0.177 C 
ENDROOT
BRANCH  10  11
ATOM     11  CB  GLN A  14      -5.541   5.549  12.608  1.00 14.45     0.044 C 
BRANCH  11  12
ATOM     12  CG  GLN A  14      -6.488   6.725  12.545  1.00 13.74     0.105 C 
BRANCH  12  13
ATOM     13  CD  GLN A  14      -5.887   7.982  13.128  1.00 16.29     0.215 C 
ATOM     14  NE2 GLN A  14      -6.320   8.342  14.317  1.00  8.57    -0.370 N 
ATOM     15  H06 GLN A  14      -5.953   9.174  14.757  1.00  8.57     0.159 HD
ATOM     16  H07 GLN A  14      -7.020   7.788  14.789  1.00  8.57     0.159 HD
ATOM     17  OE1 GLN A  14      -5.041   8.617  12.518  1.00 23.55    -0.274 OA
ENDBRANCH  12  13
ENDBRANCH  11  12
ENDBRANCH  10  11
END_RES GLN A  14
BEGIN_RES SER A  16
REMARK  2 active torsions:
REMARK  status: ('A' for Active; 'I' for Inactive)
REMARK    8  A    between atoms: CA   and  CB  
REMARK    9  A    between atoms: CB   and  OG  
ROOT
ATOM     18  CA  SER A  16      -1.305  10.019  14.282  1.00  2.34     0.200 C 
ENDROOT
BRANCH  18  19
ATOM     19  CB  SER A  16      -2.242   9.935  15.479  1.00  3.12     0.199 C 
BRANCH  19  20
ATOM     20  OG  SER A  16      -3.475   9.351  15.099  1.00  1.00    -0.398 OA
ATOM     21  H04 SER A  16      -3.746   8.713  15.764  1.00  1.00     0.209 HD
ENDBRANCH  19  20
ENDBRANCH  18  19
END_RES SER A  16
BEGIN_RES LEU A  32
REMARK  2 active torsions:
REMARK  status: ('A' for Active; 'I' for Inactive)
REMARK   10  A    between atoms: CA   and  CB  
REMARK   11  A    between atoms: CB   and  CG  
ROOT
ATOM     22  CA  LEU A  32     -10.272  -4.106   1.587  1.00 16.16     0.177 C 
ENDROOT
BRANCH  22  23
ATOM     23  CB  LEU A  32     -11.613  -3.858   0.880  1.00 12.35     0.038 C 
BRANCH  23  24
ATOM     24  CG  LEU A  32     -12.518  -5.106   0.911  1.00  9.77    -0.020 C 
ATOM     25  CD1 LEU A  32     -13.019  -5.357   2.314  1.00  4.35     0.009 C 
ATOM     26  CD2 LEU A  32     -13.687  -4.946  -0.025  1.00 10.60     0.009 C 
ENDBRANCH  23  24
ENDBRANCH  22  23
END_RES LEU A  32
BEGIN_RES HIS A  38
REMARK  2 active torsions:
REMARK  status: ('A' for Active; 'I' for Inactive)
REMARK   12  A    between atoms: CA   and  CB  
REMARK   13  A    between atoms: CB   and  CG  
ROOT
ATOM     27  CA  HIS A  38     -10.959   4.941   1.621  1.00 16.94     0.182 C 
ENDROOT
BRANCH  27  28
ATOM     28  CB  HIS A  38     -11.810   4.840   2.881  1.00 15.47     0.095 C 
BRANCH  28  29
ATOM     29  CG  HIS A  38     -12.995   3.941   2.738  1.00 18.62     0.053 A 
ATOM     30  CD2 HIS A  38     -14.155   4.101   2.057  1.00 15.06     0.116 A 
ATOM     31  NE2 HIS A  38     -14.888   2.956   2.237  1.00 18.12    -0.359 N 
ATOM     32  CE1 HIS A  38     -14.206   2.124   3.000  1.00 14.78     0.207 A 
ATOM     33  H06 HIS A  38     -15.803   2.779   1.848  1.00 18.12     0.166 HD
ATOM     34  ND1 HIS A  38     -13.061   2.693   3.318  1.00 16.58    -0.247 NA
ENDBRANCH  28  29
ENDBRANCH  27  28
END_RES HIS A  38
BEGIN_RES TRP A  63
REMARK  2 active torsions:
REMARK  status: ('A' for Active; 'I' for Inactive)
REMARK   14  A    between atoms: CA   and  CB  
REMARK   15  A    between atoms: CB   and  CG  
ROOT
ATOM     35  CA  TRP A  63     -22.437   6.257   6.543  1.00 27.04     0.181 C 
ENDROOT
BRANCH  35  36
ATOM     36  CB  TRP A  63     -22.360   6.642   5.068  1.00 31.37     0.075 C 
BRANCH  36  37
ATOM     37  CG  TRP A  63     -20.953   6.793   4.530  1.00 34.37    -0.028 A 
ATOM     38  CD2 TRP A  63     -19.886   5.837   4.610  1.00 33.79    -0.002 A 
ATOM     39  CE3 TRP A  63     -19.751   4.578   5.200  1.00 32.99     0.014 A 
ATOM     40  CE2 TRP A  63     -18.786   6.380   3.911  1.00 35.84     0.042 A 
ATOM     41  CZ3 TRP A  63     -18.541   3.911   5.077  1.00 32.93     0.001 A 
ATOM     42  CH2 TRP A  63     -17.465   4.478   4.376  1.00 39.24     0.002 A 
ATOM     43  CZ2 TRP A  63     -17.569   5.709   3.786  1.00 37.99     0.030 A 
ATOM     44  NE1 TRP A  63     -19.170   7.604   3.434  1.00 37.98    -0.365 N 
ATOM     45  H06 TRP A  63     -18.592   8.230   2.892  1.00 37.98     0.165 HD
ATOM     46  CD1 TRP A  63     -20.469   7.842   3.812  1.00 38.16     0.096 A 
ENDBRANCH  36  37
ENDBRANCH  35  36
END_RES TRP A  63
BEGIN_RES LEU A  66
REMARK  2 active torsions:
REMARK  status: ('A' for Active; 'I' for Inactive)
REMARK   16  A    between atoms: CA   and  CB  
REMARK   17  A    between atoms: CB   and  CG  
ROOT
ATOM     47  CA  LEU A  66     -20.004   6.489  11.120  1.00 10.90     0.177 C 
ENDROOT
BRANCH  47  48
ATOM     48  CB  LEU A  66     -19.626   5.453  10.069  1.00 13.57     0.038 C 
BRANCH  48  49
ATOM     49  CG  LEU A  66     -19.363   4.028  10.554  1.00  8.73    -0.020 C 
ATOM     50  CD1 LEU A  66     -19.214   3.997  12.053  1.00 14.23     0.009 C 
ATOM     51  CD2 LEU A  66     -20.518   3.158  10.131  1.00  1.92     0.009 C 
ENDBRANCH  48  49
ENDBRANCH  47  48
END_RES LEU A  66
BEGIN_RES PHE A  70
REMARK  2 active torsions:
REMARK  status: ('A' for Active; 'I' for Inactive)
REMARK   18  A    between atoms: CA   and  CB  
REMARK   19  A    between atoms: CB   and  CG  
ROOT
ATOM     52  CA  PHE A  70     -14.974   9.434  13.165  1.00  8.78     0.180 C 
ENDROOT
BRANCH  52  53
ATOM     53  CB  PHE A  70     -14.707   9.132  11.681  1.00  6.33     0.073 C 
BRANCH  53  54
ATOM     54  CG  PHE A  70     -13.932   7.861  11.459  1.00  3.42    -0.056 A 
ATOM     55  CD1 PHE A  70     -13.705   7.376  10.180  1.00 13.88     0.007 A 
ATOM     56  CE1 PHE A  70     -13.021   6.164   9.982  1.00 12.71     0.001 A 
ATOM     57  CZ  PHE A  70     -12.560   5.431  11.076  1.00  4.21     0.000 A 
ATOM     58  CE2 PHE A  70     -12.778   5.906  12.356  1.00  2.83     0.001 A 
ATOM     59  CD2 PHE A  70     -13.463   7.119  12.543  1.00  1.00     0.007 A 
ENDBRANCH  53  54
ENDBRANCH  52  53
END_RES PHE A  70
BEGIN_RES TYR A  73
REMARK  3 active torsions:
REMARK  status: ('A' for Active; 'I' for Inactive)
REMARK   20  A    between atoms: CA   and  CB  
REMARK   21  A    between atoms: CB   and  CG  
REMARK   22  A    between atoms: CZ   and  OH  
ROOT
ATOM     60  CA  TYR A  73     -13.212  10.166  17.260  1.00 12.17     0.180 C 
ENDROOT
BRANCH  60  61
ATOM     61  CB  TYR A  73     -13.301   8.846  16.517  1.00 12.84     0.073 C 
BRANCH  61  62
ATOM     62  CG  TYR A  73     -13.227   7.663  17.418  1.00 15.89    -0.056 A 
ATOM     63  CD1 TYR A  73     -14.330   6.869  17.640  1.00 16.00     0.010 A 
ATOM     64  CE1 TYR A  73     -14.271   5.778  18.508  1.00 13.55     0.037 A 
ATOM     65  CZ  TYR A  73     -13.086   5.492  19.155  1.00 18.13     0.065 A 
ATOM     66  CE2 TYR A  73     -11.970   6.269  18.950  1.00 15.89     0.037 A 
ATOM     67  CD2 TYR A  73     -12.046   7.351  18.082  1.00 21.86     0.010 A 
BRANCH  65  68
ATOM     68  OH  TYR A  73     -13.004   4.420  20.009  1.00 12.12    -0.361 OA
ATOM     69  H08 TYR A  73     -13.768   4.414  20.592  1.00 12.12     0.217 HD
ENDBRANCH  65  68
ENDBRANCH  61  62
ENDBRANCH  60  61
END_RES TYR A  73
BEGIN_RES PHE A  77
REMARK  2 active torsions:
REMARK  status: ('A' for Active; 'I' for Inactive)
REMARK   23  A    between atoms: CA   and  CB  
REMARK   24  A    between atoms: CB   and  CG  
ROOT
ATOM     70  CA  PHE A  77      -8.400  10.581  20.110  1.00 17.17     0.180 C 
ENDROOT
BRANCH  70  71
ATOM     71  CB  PHE A  77      -8.228   9.750  18.851  1.00 10.44     0.073 C 
BRANCH  71  72
ATOM     72  CG  PHE A  77      -8.277   8.274  19.092  1.00  6.07    -0.056 A 
ATOM     73  CD2 PHE A  77      -8.034   7.389  18.066  1.00  9.61     0.007 A 
ATOM     74  CE2 PHE A  77      -8.075   6.017  18.280  1.00  1.00     0.001 A 
ATOM     75  CZ  PHE A  77      -8.362   5.523  19.542  1.00  1.92     0.000 A 
ATOM     76  CE1 PHE A  77      -8.605   6.394  20.579  1.00  9.25     0.001 A 
ATOM     77  CD1 PHE A  77      -8.562   7.769  20.350  1.00  9.63     0.007 A 
ENDBRANCH  71  72
ENDBRANCH  70  71
END_RES PHE A  77
BEGIN_RES LEU A  96
REMARK  2 active torsions:
REMARK  status: ('A' for Active; 'I' for Inactive)
REMARK   25  A    between atoms: CA   and  CB  
REMARK   26  A    between atoms: CB   and  CG  
ROOT
ATOM     78  CA  LEU A  96       0.717   6.481  17.359  1.00 16.08     0.177 C 
ENDROOT
BRANCH  78  79
ATOM     79  CB  LEU A  96      -0.370   7.101  18.230  1.00 18.83     0.038 C 
BRANCH  79  80
ATOM     80  CG  LEU A  96      -0.150   6.936  19.734  1.00 19.03    -0.020 C 
ATOM     81  CD1 LEU A  96       0.556   8.163  20.261  1.00 28.17     0.009 C 
ATOM     82  CD2 LEU A  96      -1.474   6.801  20.449  1.00 22.01     0.009 C 
ENDBRANCH  79  80
ENDBRANCH  78  79
END_RES LEU A  96
BEGIN_RES VAL A  98
REMARK  1 active torsions:
REMARK  status: ('A' for Active; 'I' for Inactive)
REMARK   27  A    between atoms: CA   and  CB  
ROOT
ATOM     83  CA  VAL A  98      -3.928   2.082  14.897  1.00 19.83     0.180 C 
ENDROOT
BRANCH  83  84
ATOM     84  CB  VAL A  98      -5.203   2.807  15.281  1.00 17.87     0.009 C 
ATOM     85  CG2 VAL A  98      -4.929   4.278  15.454  1.00 29.90     0.012 C 
ATOM     86  CG1 VAL A  98      -5.761   2.210  16.556  1.00 14.79     0.012 C 
ENDBRANCH  83  84
END_RES VAL A  98
BEGIN_RES ASN A 112
REMARK  2 active torsions:
REMARK  status: ('A' for Active; 'I' for Inactive)
REMARK   28  A    between atoms: CA   and  CB  
REMARK   29  A    between atoms: CB   and  CG  
REMARK       I    between atoms: CG   and  ND2 
ROOT
ATOM     87  CA  ASN A 112     -11.790  -8.793  14.069  1.00 37.70     0.185 C 
ENDROOT
BRANCH  87  88
ATOM     88  CB  ASN A 112     -12.992  -7.945  14.465  1.00 26.24     0.137 C 
BRANCH  88  89
ATOM     89  CG  ASN A 112     -13.817  -8.566  15.570  1.00 21.77     0.217 C 
ATOM     90  ND2 ASN A 112     -14.964  -9.133  15.199  1.00  9.31    -0.370 N 
ATOM     91  H04 ASN A 112     -15.562  -9.564  15.891  1.00  9.31     0.159 HD
ATOM     92  H05 ASN A 112     -15.237  -9.133  14.227  1.00  9.31     0.159 HD
ATOM     93  OD1 ASN A 112     -13.433  -8.533  16.745  1.00 21.61    -0.274 OA
ENDBRANCH  88  89
ENDBRANCH  87  88
END_RES ASN A 112
BEGIN_RES PHE A 114
REMARK  2 active torsions:
REMARK  status: ('A' for Active; 'I' for Inactive)
REMARK   30  A    between atoms: CA   and  CB  
REMARK   31  A    between atoms: CB   and  CG  
ROOT
ATOM     94  CA  PHE A 114      -7.754  -3.619  17.012  1.00 26.06     0.180 C 
ENDROOT
BRANCH  94  95
ATOM     95  CB  PHE A 114      -8.890  -3.080  17.867  1.00 19.95     0.073 C 
BRANCH  95  96
ATOM     96  CG  PHE A 114      -9.181  -1.635  17.623  1.00 17.65    -0.056 A 
ATOM     97  CD1 PHE A 114      -8.146  -0.717  17.459  1.00 13.01     0.007 A 
ATOM     98  CE1 PHE A 114      -8.415   0.631  17.261  1.00  6.74     0.001 A 
ATOM     99  CZ  PHE A 114      -9.731   1.081  17.222  1.00  6.27     0.000 A 
ATOM    100  CE2 PHE A 114     -10.769   0.177  17.383  1.00 17.36     0.001 A 
ATOM    101  CD2 PHE A 114     -10.491  -1.179  17.583  1.00 18.39     0.007 A 
ENDBRANCH  95  96
ENDBRANCH  94  95
END_RES PHE A 114
BEGIN_RES VAL A 116
REMARK  1 active torsions:
REMARK  status: ('A' for Active; 'I' for Inactive)
REMARK   32  A    between atoms: CA   and  CB  
ROOT
ATOM    102  CA  VAL A 116      -2.467   0.283  18.565  1.00 13.48     0.180 C 
ENDROOT
BRANCH 102 103
ATOM    103  CB  VAL A 116      -3.101   1.238  19.599  1.00 20.86     0.009 C 
ATOM    104  CG1 VAL A 116      -3.013   2.678  19.087  1.00 25.01     0.012 C 
ATOM    105  CG2 VAL A 116      -4.528   0.839  19.897  1.00 25.34     0.012 C 
ENDBRANCH 102 103
END_RES VAL A 116
BEGIN_RES ILE A 123
REMARK  2 active torsions:
REMARK  status: ('A' for Active; 'I' for Inactive)
REMARK   33  A    between atoms: CA   and  CB  
REMARK   34  A    between atoms: CB   and  CG1 
ROOT
ATOM    106  CA  ILE A 123       1.557  -1.626  23.222  1.00 15.07     0.180 C 
ENDROOT
BRANCH 106 107
ATOM    107  CB  ILE A 123       1.697  -0.112  23.461  1.00 14.41     0.013 C 
ATOM    108  CG2 ILE A 123       3.087   0.202  23.986  1.00 18.35     0.012 C 
BRANCH 107 109
ATOM    109  CG1 ILE A 123       1.435   0.655  22.168  1.00 15.23     0.002 C 
ATOM    110  CD1 ILE A 123       0.197   1.518  22.215  1.00 14.67     0.005 C 
ENDBRANCH 107 109
ENDBRANCH 106 107
END_RES ILE A 123
BEGIN_RES LEU A 124
REMARK  2 active torsions:
REMARK  status: ('A' for Active; 'I' for Inactive)
REMARK   35  A    between atoms: CA   and  CB  
REMARK   36  A    between atoms: CB   and  CG  
ROOT
ATOM    111  CA  LEU A 124      -2.057  -2.686  23.524  1.00 11.86     0.177 C 
ENDROOT
BRANCH 111 112
ATOM    112  CB  LEU A 124      -2.698  -1.652  24.429  1.00 14.60     0.038 C 
BRANCH 112 113
ATOM    113  CG  LEU A 124      -2.635  -0.253  23.834  1.00 16.19    -0.020 C 
ATOM    114  CD1 LEU A 124      -4.059   0.197  23.459  1.00 22.07     0.009 C 
ATOM    115  CD2 LEU A 124      -1.990   0.685  24.823  1.00  9.12     0.009 C 
ENDBRANCH 112 113
ENDBRANCH 111 112
END_RES LEU A 124
BEGIN_RES PHE A 126
REMARK  2 active torsions:
REMARK  status: ('A' for Active; 'I' for Inactive)
REMARK   37  A    between atoms: CA   and  CB  
REMARK   38  A    between atoms: CB   and  CG  
ROOT
ATOM    116  CA  PHE A 126      -8.784  -4.792  22.233  1.00 23.15     0.180 C 
ENDROOT
BRANCH 116 117
ATOM    117  CB  PHE A 126      -9.823  -4.011  21.461  1.00 20.65     0.073 C 
BRANCH 117 118
ATOM    118  CG  PHE A 126     -10.953  -3.548  22.295  1.00 23.65    -0.056 A 
ATOM    119  CD2 PHE A 126     -10.773  -2.545  23.232  1.00 36.63     0.007 A 
ATOM    120  CE2 PHE A 126     -11.845  -2.106  24.021  1.00 36.27     0.001 A 
ATOM    121  CZ  PHE A 126     -13.099  -2.680  23.866  1.00 18.06     0.000 A 
ATOM    122  CE1 PHE A 126     -13.281  -3.679  22.932  1.00  5.50     0.001 A 
ATOM    123  CD1 PHE A 126     -12.210  -4.108  22.148  1.00 15.29     0.007 A 
ENDBRANCH 117 118
ENDBRANCH 116 117
END_RES PHE A 126
BEGIN_RES TRP A 131
REMARK  2 active torsions:
REMARK  status: ('A' for Active; 'I' for Inactive)
REMARK   39  A    between atoms: CA   and  CB  
REMARK   40  A    between atoms: CB   and  CG  
ROOT
ATOM    124  CA  TRP A 131      -8.096  -3.335  26.542  1.00 14.52     0.181 C 
ENDROOT
BRANCH 124 125
ATOM    125  CB  TRP A 131      -7.651  -1.877  26.607  1.00 13.06     0.075 C 
BRANCH 125 126
ATOM    126  CG  TRP A 131      -8.053  -1.051  25.406  1.00 16.97    -0.028 A 
ATOM    127  CD2 TRP A 131      -9.134  -0.117  25.337  1.00 11.34    -0.002 A 
ATOM    128  CE2 TRP A 131      -9.142   0.427  24.038  1.00  5.87     0.042 A 
ATOM    129  CE3 TRP A 131     -10.100   0.312  26.255  1.00  3.80     0.014 A 
ATOM    130  CZ2 TRP A 131     -10.077   1.381  23.633  1.00  1.35     0.030 A 
ATOM    131  NE1 TRP A 131      -8.113  -0.150  23.345  1.00 13.90    -0.365 N 
ATOM    132  CH2 TRP A 131     -11.012   1.784  24.554  1.00  1.00     0.002 A 
ATOM    133  CZ3 TRP A 131     -11.030   1.255  25.858  1.00  1.00     0.001 A 
ATOM    134  CD1 TRP A 131      -7.463  -1.036  24.171  1.00 17.22     0.096 A 
ATOM    135  H07 TRP A 131      -7.871   0.043  22.384  1.00 13.90     0.165 HD
ENDBRANCH 125 126
ENDBRANCH 124 125
END_RES TRP A 131
BEGIN_RES LEU A 148
REMARK  2 active torsions:
REMARK  status: ('A' for Active; 'I' for Inactive)
REMARK   41  A    between atoms: CA   and  CB  
REMARK   42  A    between atoms: CB   and  CG  
ROOT
ATOM    136  CA  LEU A 148      -9.018   3.259  29.295  1.00 16.99     0.177 C 
ENDROOT
BRANCH 136 137
ATOM    137  CB  LEU A 148      -8.166   2.574  28.236  1.00  6.39     0.038 C 
BRANCH 137 138
ATOM    138  CG  LEU A 148      -7.540   3.364  27.105  1.00  1.00    -0.020 C 
ATOM    139  CD2 LEU A 148      -8.603   4.039  26.290  1.00  1.00     0.009 C 
ATOM    140  CD1 LEU A 148      -6.735   2.406  26.245  1.00  2.71     0.009 C 
ENDBRANCH 137 138
ENDBRANCH 136 137
END_RES LEU A 148
BEGIN_RES THR A 154
REMARK  2 active torsions:
REMARK  status: ('A' for Active; 'I' for Inactive)
REMARK   43  A    between atoms: CA   and  CB  
REMARK   44  A    between atoms: CB   and  OG1 
ROOT
ATOM    141  CA  THR A 154     -15.990   3.959  24.426  1.00 20.45     0.205 C 
ENDROOT
BRANCH 141 142
ATOM    142  CB  THR A 154     -14.777   4.829  24.694  1.00 16.79     0.146 C 
ATOM    143  CG2 THR A 154     -13.670   4.501  23.711  1.00 20.24     0.042 C 
BRANCH 142 144
ATOM    144  OG1 THR A 154     -15.147   6.204  24.532  1.00 18.84    -0.393 OA
ATOM    145  H06 THR A 154     -15.833   6.428  25.165  1.00 18.84     0.210 HD
ENDBRANCH 142 144
ENDBRANCH 141 142
END_RES THR A 154
BEGIN_RES VAL A 158
REMARK  1 active torsions:
REMARK  status: ('A' for Active; 'I' for Inactive)
REMARK   45  A    between atoms: CA   and  CB  
ROOT
ATOM    146  CA  VAL A 158     -15.487  -0.189  19.892  1.00 15.49     0.180 C 
ENDROOT
BRANCH 146 147
ATOM    147  CB  VAL A 158     -14.291  -0.273  20.822  1.00  6.52     0.009 C 
ATOM    148  CG1 VAL A 158     -13.250  -1.223  20.277  1.00  1.00     0.012 C 
ATOM    149  CG2 VAL A 158     -13.717   1.100  20.992  1.00  5.99     0.012 C 
ENDBRANCH 146 147
END_RES VAL A 158
BEGIN_RES LEU A 161
REMARK  2 active torsions:
REMARK  status: ('A' for Active; 'I' for Inactive)
REMARK   46  A    between atoms: CA   and  CB  
REMARK   47  A    between atoms: CB   and  CG  
ROOT
ATOM    150  CA  LEU A 161     -18.031  -1.858  15.935  1.00 13.31     0.177 C 
ENDROOT
BRANCH 150 151
ATOM    151  CB  LEU A 161     -17.046  -0.706  16.001  1.00 14.13     0.038 C 
BRANCH 151 152
ATOM    152  CG  LEU A 161     -17.437   0.560  15.249  1.00 19.39    -0.020 C 
ATOM    153  CD2 LEU A 161     -18.835   0.982  15.628  1.00 27.75     0.009 C 
ATOM    154  CD1 LEU A 161     -17.363   0.290  13.770  1.00 18.59     0.009 C 
ENDBRANCH 151 152
ENDBRANCH 150 151
END_RES LEU A 161
BEGIN_RES GLN A 168
REMARK  3 active torsions:
REMARK  status: ('A' for Active; 'I' for Inactive)
REMARK   48  A    between atoms: CA   and  CB  
REMARK   49  A    between atoms: CB   and  CG  
REMARK   50  A    between atoms: CG   and  CD  
REMARK       I    between atoms: CD   and  NE2 
ROOT
ATOM    155  CA  GLN A 168     -22.035  -6.020   8.155  1.00 30.94     0.177 C 
ENDROOT
BRANCH 155 156
ATOM    156  CB  GLN A 168     -23.054  -5.218   8.946  1.00 41.76     0.044 C 
BRANCH 156 157
ATOM    157  CG  GLN A 168     -24.481  -5.429   8.519  1.00 61.20     0.105 C 
BRANCH 157 158
ATOM    158  CD  GLN A 168     -24.979  -4.304   7.633  1.00 75.49     0.215 C 
ATOM    159  NE2 GLN A 168     -24.824  -4.475   6.319  1.00 85.00    -0.370 N 
ATOM    160  H06 GLN A 168     -25.134  -3.760   5.677  1.00 85.00     0.159 HD
ATOM    161  H07 GLN A 168     -24.397  -5.321   5.967  1.00 85.00     0.159 HD
ATOM    162  OE1 GLN A 168     -25.492  -3.286   8.120  1.00 73.64    -0.274 OA
ENDBRANCH 157 158
ENDBRANCH 156 157
ENDBRANCH 155 156
END_RES GLN A 168
ENDMDL
MODEL 4
REMARK VINA RESULT:      -7.1      2.596      7.137
REMARK  Name = human_CD1d_ODG_pred.rank_0
REMARK  9 active torsions:
REMARK  status: ('A' for Active; 'I' for Inactive)
REMARK    1  A    between atoms: C_7  and  O_8
REMARK    2  A    between atoms: O_8  and  C_9
REMARK    3  A    between atoms: C_9  and  C_11
REMARK    4  A    between atoms: C_11  and  C_13
REMARK    5  A    between atoms: C_13  and  C_14
REMARK    6  A    between atoms: C_14  and  C_15
REMARK    7  A    between atoms: C_15  and  C_16
REMARK    8  A    between atoms: C_16  and  C_17
REMARK    9  A    between atoms: C_19  and  C_20
REMARK                            x       y       z     vdW  Elec       q    Type
REMARK                         _______ _______ _______ _____ _____    ______ ____
ROOT
ATOM      1  C   UNL     1      -8.611   4.665  21.582  0.00  0.00    +0.000 C 
ATOM      2  O   UNL     1      -9.972   4.286  21.401  0.00  0.00    +0.000 OA
ATOM      3  C   UNL     1      -8.460   5.473  22.864  0.00  0.00    +0.000 C 
ATOM      4  O   UNL     1      -9.161   6.674  22.751  0.00  0.00    +0.000 OA
ATOM      5  C   UNL     1      -6.987   5.764  23.118  0.00  0.00    +0.000 C 
ATOM      6  O   UNL     1      -6.870   6.414  24.399  0.00  0.00    +0.000 OA
ATOM      7  C   UNL     1      -6.218   4.429  23.196  0.00  0.00    +0.000 C 
ATOM      8  O   UNL     1      -6.329   3.716  21.929  0.00  0.00    +0.000 OA
ATOM      9  C   UNL     1      -7.750   3.400  21.662  0.00  0.00    +0.000 C 
ENDROOT
BRANCH   9  11
ATOM     10  O   UNL     1      -8.073   1.277  20.656  0.00  0.00    +0.000 OA
ATOM     11  C   UNL     1      -7.788   2.641  20.338  0.00  0.00    +0.000 C 
ENDBRANCH   9  11
BRANCH   7  12
ATOM     12  O   UNL     1      -4.841   4.737  23.368  0.00  0.00    +0.000 OA
BRANCH  12  13
ATOM     13  C   UNL     1      -4.089   4.561  22.170  0.00  0.00    +0.000 C 
BRANCH  13  14
ATOM     14  C   UNL     1      -2.811   3.793  22.595  0.00  0.00    +0.000 C 
BRANCH  14  15
ATOM     15  C   UNL     1      -2.315   4.342  23.933  0.00  0.00    +0.000 C 
BRANCH  15  16
ATOM     16  C   UNL     1      -0.974   5.070  23.703  0.00  0.00    +0.000 C 
BRANCH  16  17
ATOM     17  C   UNL     1      -0.882   6.205  24.673  0.00  0.00    +0.000 C 
BRANCH  17  18
ATOM     18  C   UNL     1      -0.320   7.429  23.938  0.00  0.00    +0.000 C 
BRANCH  18  19
ATOM     19  C   UNL     1       1.005   7.774  24.553  0.00  0.00    +0.000 C 
ATOM     20  C   UNL     1       1.333   9.229  24.249  0.00  0.00    +0.000 C 
ENDBRANCH  18  19
ENDBRANCH  17  18
ENDBRANCH  16  17
ENDBRANCH  15  16
ENDBRANCH  14  15
ENDBRANCH  13  14
ENDBRANCH  12  13
ENDBRANCH   7  12
TORSDOF 9
BEGIN_RES LEU A  10
REMARK  2 active torsions:
REMARK  status: ('A' for Active; 'I' for Inactive)
REMARK    1  A    between atoms: CA   and  CB  
REMARK    2  A    between atoms: CB   and  CG  
ROOT
ATOM      1  CA  LEU A  10     -10.775  -4.871   5.898  1.00 25.14     0.177 C 
ENDROOT
BRANCH   1   2
ATOM      2  CB  LEU A  10     -12.191  -4.387   6.226  1.00 17.87     0.038 C 
BRANCH   2   3
ATOM      3  CG  LEU A  10     -12.423  -2.895   5.979  1.00 24.95    -0.020 C 
ATOM      4  CD2 LEU A  10     -13.685  -2.480   6.657  1.00 26.38     0.009 C 
ATOM      5  CD1 LEU A  10     -12.491  -2.595   4.491  1.00 28.12     0.009 C 
ENDBRANCH   2   3
ENDBRANCH   1   2
END_RES LEU A  10
BEGIN_RES CYS A  12
REMARK  2 active torsions:
REMARK  status: ('A' for Active; 'I' for Inactive)
REMARK    3  A    between atoms: CA   and  CB  
REMARK    4  A    between atoms: CB   and  SG  
ROOT
ATOM      6  CA  CYS A  12      -8.555   0.470   8.750  1.00 23.16     0.185 C 
ENDROOT
BRANCH   6   7
ATOM      7  CB  CYS A  12      -9.828   0.763   9.555  1.00 20.43     0.105 C 
BRANCH   7   8
ATOM      8  SG  CYS A  12     -10.945   2.018   8.857  1.00 24.64    -0.180 SA
ATOM      9  H04 CYS A  12     -10.668   2.190   7.558  1.00 24.64     0.101 HD
ENDBRANCH   7   8
ENDBRANCH   6   7
END_RES CYS A  12
BEGIN_RES GLN A  14
REMARK  3 active torsions:
REMARK  status: ('A' for Active; 'I' for Inactive)
REMARK    5  A    between atoms: CA   and  CB  
REMARK    6  A    between atoms: CB   and  CG  
REMARK    7  A    between atoms: CG   and  CD  
REMARK       I    between atoms: CD   and  NE2 
ROOT
ATOM     10  CA  GLN A  14      -4.645   5.402  11.377  1.00 10.43     0.177 C 
ENDROOT
BRANCH  10  11
ATOM     11  CB  GLN A  14      -5.541   5.549  12.608  1.00 14.45     0.044 C 
BRANCH  11  12
ATOM     12  CG  GLN A  14      -6.615   6.603  12.467  1.00 13.74     0.105 C 
BRANCH  12  13
ATOM     13  CD  GLN A  14      -6.044   7.991  12.300  1.00 16.29     0.215 C 
ATOM     14  NE2 GLN A  14      -6.648   8.773  11.433  1.00  8.57    -0.370 N 
ATOM     15  H06 GLN A  14      -6.311   9.713  11.280  1.00  8.57     0.159 HD
ATOM     16  H07 GLN A  14      -7.450   8.434  10.920  1.00  8.57     0.159 HD
ATOM     17  OE1 GLN A  14      -5.073   8.354  12.946  1.00 23.55    -0.274 OA
ENDBRANCH  12  13
ENDBRANCH  11  12
ENDBRANCH  10  11
END_RES GLN A  14
BEGIN_RES SER A  16
REMARK  2 active torsions:
REMARK  status: ('A' for Active; 'I' for Inactive)
REMARK    8  A    between atoms: CA   and  CB  
REMARK    9  A    between atoms: CB   and  OG  
ROOT
ATOM     18  CA  SER A  16      -1.305  10.019  14.282  1.00  2.34     0.200 C 
ENDROOT
BRANCH  18  19
ATOM     19  CB  SER A  16      -2.242   9.935  15.479  1.00  3.12     0.199 C 
BRANCH  19  20
ATOM     20  OG  SER A  16      -3.470   9.336  15.103  1.00  1.00    -0.398 OA
ATOM     21  H04 SER A  16      -3.337   8.396  14.960  1.00  1.00     0.209 HD
ENDBRANCH  19  20
ENDBRANCH  18  19
END_RES SER A  16
BEGIN_RES LEU A  32
REMARK  2 active torsions:
REMARK  status: ('A' for Active; 'I' for Inactive)
REMARK   10  A    between atoms: CA   and  CB  
REMARK   11  A    between atoms: CB   and  CG  
ROOT
ATOM     22  CA  LEU A  32     -10.272  -4.106   1.587  1.00 16.16     0.177 C 
ENDROOT
BRANCH  22  23
ATOM     23  CB  LEU A  32     -11.613  -3.858   0.880  1.00 12.35     0.038 C 
BRANCH  23  24
ATOM     24  CG  LEU A  32     -12.524  -5.102   0.925  1.00  9.77    -0.020 C 
ATOM     25  CD1 LEU A  32     -13.018  -5.341   2.332  1.00  4.35     0.009 C 
ATOM     26  CD2 LEU A  32     -13.698  -4.941  -0.005  1.00 10.60     0.009 C 
ENDBRANCH  23  24
ENDBRANCH  22  23
END_RES LEU A  32
BEGIN_RES HIS A  38
REMARK  2 active torsions:
REMARK  status: ('A' for Active; 'I' for Inactive)
REMARK   12  A    between atoms: CA   and  CB  
REMARK   13  A    between atoms: CB   and  CG  
ROOT
ATOM     27  CA  HIS A  38     -10.959   4.941   1.621  1.00 16.94     0.182 C 
ENDROOT
BRANCH  27  28
ATOM     28  CB  HIS A  38     -11.810   4.840   2.881  1.00 15.47     0.095 C 
BRANCH  28  29
ATOM     29  CG  HIS A  38     -12.993   3.937   2.740  1.00 18.62     0.053 A 
ATOM     30  CD2 HIS A  38     -14.154   4.093   2.061  1.00 15.06     0.116 A 
ATOM     31  NE2 HIS A  38     -14.883   2.946   2.241  1.00 18.12    -0.359 N 
ATOM     32  CE1 HIS A  38     -14.197   2.115   3.003  1.00 14.78     0.207 A 
ATOM     33  H06 HIS A  38     -15.798   2.766   1.854  1.00 18.12     0.166 HD
ATOM     34  ND1 HIS A  38     -13.053   2.689   3.319  1.00 16.58    -0.247 NA
ENDBRANCH  28  29
ENDBRANCH  27  28
END_RES HIS A  38
BEGIN_RES TRP A  63
REMARK  2 active torsions:
REMARK  status: ('A' for Active; 'I' for Inactive)
REMARK   14  A    between atoms: CA   and  CB  
REMARK   15  A    between atoms: CB   and  CG  
ROOT
ATOM     35  CA  TRP A  63     -22.437   6.257   6.543  1.00 27.04     0.181 C 
ENDROOT
BRANCH  35  36
ATOM     36  CB  TRP A  63     -22.360   6.642   5.068  1.00 31.37     0.075 C 
BRANCH  36  37
ATOM     37  CG  TRP A  63     -20.953   6.790   4.529  1.00 34.37    -0.028 A 
ATOM     38  CD2 TRP A  63     -19.887   5.834   4.613  1.00 33.79    -0.002 A 
ATOM     39  CE3 TRP A  63     -19.752   4.578   5.208  1.00 32.99     0.014 A 
ATOM     40  CE2 TRP A  63     -18.786   6.373   3.912  1.00 35.84     0.042 A 
ATOM     41  CZ3 TRP A  63     -18.542   3.909   5.088  1.00 32.93     0.001 A 
ATOM     42  CH2 TRP A  63     -17.466   4.473   4.385  1.00 39.24     0.002 A 
ATOM     43  CZ2 TRP A  63     -17.569   5.701   3.790  1.00 37.99     0.030 A 
ATOM     44  NE1 TRP A  63     -19.169   7.595   3.430  1.00 37.98    -0.365 N 
ATOM     45  H06 TRP A  63     -18.591   8.219   2.885  1.00 37.98     0.165 HD
ATOM     46  CD1 TRP A  63     -20.469   7.835   3.807  1.00 38.16     0.096 A 
ENDBRANCH  36  37
ENDBRANCH  35  36
END_RES TRP A  63
BEGIN_RES LEU A  66
REMARK  2 active torsions:
REMARK  status: ('A' for Active; 'I' for Inactive)
REMARK   16  A    between atoms: CA   and  CB  
REMARK   17  A    between atoms: CB   and  CG  
ROOT
ATOM     47  CA  LEU A  66     -20.004   6.489  11.120  1.00 10.90     0.177 C 
ENDROOT
BRANCH  47  48
ATOM     48  CB  LEU A  66     -19.626   5.453  10.069  1.00 13.57     0.038 C 
BRANCH  48  49
ATOM     49  CG  LEU A  66     -19.385   4.023  10.551  1.00  8.73    -0.020 C 
ATOM     50  CD1 LEU A  66     -19.218   3.989  12.048  1.00 14.23     0.009 C 
ATOM     51  CD2 LEU A  66     -20.562   3.176  10.142  1.00  1.92     0.009 C 
ENDBRANCH  48  49
ENDBRANCH  47  48
END_RES LEU A  66
BEGIN_RES PHE A  70
REMARK  2 active torsions:
REMARK  status: ('A' for Active; 'I' for Inactive)
REMARK   18  A    between atoms: CA   and  CB  
REMARK   19  A    between atoms: CB   and  CG  
ROOT
ATOM     52  CA  PHE A  70     -14.974   9.434  13.165  1.00  8.78     0.180 C 
ENDROOT
BRANCH  52  53
ATOM     53  CB  PHE A  70     -14.707   9.132  11.681  1.00  6.33     0.073 C 
BRANCH  53  54
ATOM     54  CG  PHE A  70     -13.933   7.861  11.459  1.00  3.42    -0.056 A 
ATOM     55  CD1 PHE A  70     -13.690   7.386  10.179  1.00 13.88     0.007 A 
ATOM     56  CE1 PHE A  70     -13.007   6.173   9.980  1.00 12.71     0.001 A 
ATOM     57  CZ  PHE A  70     -12.562   5.430  11.074  1.00  4.21     0.000 A 
ATOM     58  CE2 PHE A  70     -12.796   5.895  12.355  1.00  2.83     0.001 A 
ATOM     59  CD2 PHE A  70     -13.480   7.109  12.543  1.00  1.00     0.007 A 
ENDBRANCH  53  54
ENDBRANCH  52  53
END_RES PHE A  70
BEGIN_RES TYR A  73
REMARK  3 active torsions:
REMARK  status: ('A' for Active; 'I' for Inactive)
REMARK   20  A    between atoms: CA   and  CB  
REMARK   21  A    between atoms: CB   and  CG  
REMARK   22  A    between atoms: CZ   and  OH  
ROOT
ATOM     60  CA  TYR A  73     -13.212  10.166  17.260  1.00 12.17     0.180 C 
ENDROOT
BRANCH  60  61
ATOM     61  CB  TYR A  73     -13.301   8.846  16.517  1.00 12.84     0.073 C 
BRANCH  61  62
ATOM     62  CG  TYR A  73     -13.081   7.665  17.397  1.00 15.89    -0.056 A 
ATOM     63  CD1 TYR A  73     -11.812   7.289  17.778  1.00 16.00     0.010 A 
ATOM     64  CE1 TYR A  73     -11.602   6.165  18.576  1.00 13.55     0.037 A 
ATOM     65  CZ  TYR A  73     -12.686   5.417  18.991  1.00 18.13     0.065 A 
ATOM     66  CE2 TYR A  73     -13.963   5.772  18.626  1.00 15.89     0.037 A 
ATOM     67  CD2 TYR A  73     -14.155   6.895  17.830  1.00 21.86     0.010 A 
BRANCH  65  68
ATOM     68  OH  TYR A  73     -12.502   4.310  19.783  1.00 12.12    -0.361 OA
ATOM     69  H08 TYR A  73     -11.570   4.080  19.802  1.00 12.12     0.217 HD
ENDBRANCH  65  68
ENDBRANCH  61  62
ENDBRANCH  60  61
END_RES TYR A  73
BEGIN_RES PHE A  77
REMARK  2 active torsions:
REMARK  status: ('A' for Active; 'I' for Inactive)
REMARK   23  A    between atoms: CA   and  CB  
REMARK   24  A    between atoms: CB   and  CG  
ROOT
ATOM     70  CA  PHE A  77      -8.400  10.581  20.110  1.00 17.17     0.180 C 
ENDROOT
BRANCH  70  71
ATOM     71  CB  PHE A  77      -8.228   9.750  18.851  1.00 10.44     0.073 C 
BRANCH  71  72
ATOM     72  CG  PHE A  77      -7.092   8.778  18.921  1.00  6.07    -0.056 A 
ATOM     73  CD2 PHE A  77      -7.134   7.714  19.792  1.00  9.61     0.007 A 
ATOM     74  CE2 PHE A  77      -6.085   6.805  19.862  1.00  1.00     0.001 A 
ATOM     75  CZ  PHE A  77      -4.978   6.964  19.045  1.00  1.92     0.000 A 
ATOM     76  CE1 PHE A  77      -4.921   8.022  18.167  1.00  9.25     0.001 A 
ATOM     77  CD1 PHE A  77      -5.980   8.928  18.108  1.00  9.63     0.007 A 
ENDBRANCH  71  72
ENDBRANCH  70  71
END_RES PHE A  77
BEGIN_RES LEU A  96
REMARK  2 active torsions:
REMARK  status: ('A' for Active; 'I' for Inactive)
REMARK   25  A    between atoms: CA   and  CB  
REMARK   26  A    between atoms: CB   and  CG  
ROOT
ATOM     78  CA  LEU A  96       0.717   6.481  17.359  1.00 16.08     0.177 C 
ENDROOT
BRANCH  78  79
ATOM     79  CB  LEU A  96      -0.370   7.101  18.230  1.00 18.83     0.038 C 
BRANCH  79  80
ATOM     80  CG  LEU A  96      -0.182   6.883  19.731  1.00 19.03    -0.020 C 
ATOM     81  CD1 LEU A  96       0.519   8.087  20.315  1.00 28.17     0.009 C 
ATOM     82  CD2 LEU A  96      -1.522   6.731  20.414  1.00 22.01     0.009 C 
ENDBRANCH  79  80
ENDBRANCH  78  79
END_RES LEU A  96
BEGIN_RES VAL A  98
REMARK  1 active torsions:
REMARK  status: ('A' for Active; 'I' for Inactive)
REMARK   27  A    between atoms: CA   and  CB  
ROOT
ATOM     83  CA  VAL A  98      -3.928   2.082  14.897  1.00 19.83     0.180 C 
ENDROOT
BRANCH  83  84
ATOM     84  CB  VAL A  98      -5.203   2.807  15.281  1.00 17.87     0.009 C 
ATOM     85  CG2 VAL A  98      -4.917   4.268  15.515  1.00 29.90     0.012 C 
ATOM     86  CG1 VAL A  98      -5.794   2.170  16.521  1.00 14.79     0.012 C 
ENDBRANCH  83  84
END_RES VAL A  98
BEGIN_RES ASN A 112
REMARK  2 active torsions:
REMARK  status: ('A' for Active; 'I' for Inactive)
REMARK   28  A    between atoms: CA   and  CB  
REMARK   29  A    between atoms: CB   and  CG  
REMARK       I    between atoms: CG   and  ND2 
ROOT
ATOM     87  CA  ASN A 112     -11.790  -8.793  14.069  1.00 37.70     0.185 C 
ENDROOT
BRANCH  87  88
ATOM     88  CB  ASN A 112     -12.992  -7.945  14.465  1.00 26.24     0.137 C 
BRANCH  88  89
ATOM     89  CG  ASN A 112     -13.815  -8.565  15.572  1.00 21.77     0.217 C 
ATOM     90  ND2 ASN A 112     -14.963  -9.134  15.203  1.00  9.31    -0.370 N 
ATOM     91  H04 ASN A 112     -15.559  -9.563  15.896  1.00  9.31     0.159 HD
ATOM     92  H05 ASN A 112     -15.236  -9.135  14.230  1.00  9.31     0.159 HD
ATOM     93  OD1 ASN A 112     -13.431  -8.530  16.747  1.00 21.61    -0.274 OA
ENDBRANCH  88  89
ENDBRANCH  87  88
END_RES ASN A 112
BEGIN_RES PHE A 114
REMARK  2 active torsions:
REMARK  status: ('A' for Active; 'I' for Inactive)
REMARK   30  A    between atoms: CA   and  CB  
REMARK   31  A    between atoms: CB   and  CG  
ROOT
ATOM     94  CA  PHE A 114      -7.754  -3.619  17.012  1.00 26.06     0.180 C 
ENDROOT
BRANCH  94  95
ATOM     95  CB  PHE A 114      -8.890  -3.080  17.867  1.00 19.95     0.073 C 
BRANCH  95  96
ATOM     96  CG  PHE A 114      -9.188  -1.637  17.615  1.00 17.65    -0.056 A 
ATOM     97  CD1 PHE A 114     -10.502  -1.188  17.514  1.00 13.01     0.007 A 
ATOM     98  CE1 PHE A 114     -10.779   0.147  17.251  1.00  6.74     0.001 A 
ATOM     99  CZ  PHE A 114      -9.738   1.056  17.087  1.00  6.27     0.000 A 
ATOM    100  CE2 PHE A 114      -8.426   0.621  17.187  1.00 17.36     0.001 A 
ATOM    101  CD2 PHE A 114      -8.154  -0.726  17.451  1.00 18.39     0.007 A 
ENDBRANCH  95  96
ENDBRANCH  94  95
END_RES PHE A 114
BEGIN_RES VAL A 116
REMARK  1 active torsions:
REMARK  status: ('A' for Active; 'I' for Inactive)
REMARK   32  A    between atoms: CA   and  CB  
ROOT
ATOM    102  CA  VAL A 116      -2.467   0.283  18.565  1.00 13.48     0.180 C 
ENDROOT
BRANCH 102 103
ATOM    103  CB  VAL A 116      -3.101   1.238  19.599  1.00 20.86     0.009 C 
ATOM    104  CG1 VAL A 116      -3.074   2.670  19.057  1.00 25.01     0.012 C 
ATOM    105  CG2 VAL A 116      -4.505   0.801  19.946  1.00 25.34     0.012 C 
ENDBRANCH 102 103
END_RES VAL A 116
BEGIN_RES ILE A 123
REMARK  2 active torsions:
REMARK  status: ('A' for Active; 'I' for Inactive)
REMARK   33  A    between atoms: CA   and  CB  
REMARK   34  A    between atoms: CB   and  CG1 
ROOT
ATOM    106  CA  ILE A 123       1.557  -1.626  23.222  1.00 15.07     0.180 C 
ENDROOT
BRANCH 106 107
ATOM    107  CB  ILE A 123       1.697  -0.112  23.461  1.00 14.41     0.013 C 
ATOM    108  CG2 ILE A 123       3.094   0.205  23.966  1.00 18.35     0.012 C 
BRANCH 107 109
ATOM    109  CG1 ILE A 123       1.415   0.656  22.172  1.00 15.23     0.002 C 
ATOM    110  CD1 ILE A 123       0.212   1.564  22.259  1.00 14.67     0.005 C 
ENDBRANCH 107 109
ENDBRANCH 106 107
END_RES ILE A 123
BEGIN_RES LEU A 124
REMARK  2 active torsions:
REMARK  status: ('A' for Active; 'I' for Inactive)
REMARK   35  A    between atoms: CA   and  CB  
REMARK   36  A    between atoms: CB   and  CG  
ROOT
ATOM    111  CA  LEU A 124      -2.057  -2.686  23.524  1.00 11.86     0.177 C 
ENDROOT
BRANCH 111 112
ATOM    112  CB  LEU A 124      -2.698  -1.652  24.429  1.00 14.60     0.038 C 
BRANCH 112 113
ATOM    113  CG  LEU A 124      -2.622  -0.251  23.840  1.00 16.19    -0.020 C 
ATOM    114  CD1 LEU A 124      -4.043   0.215  23.469  1.00 22.07     0.009 C 
ATOM    115  CD2 LEU A 124      -1.967   0.676  24.833  1.00  9.12     0.009 C 
ENDBRANCH 112 113
ENDBRANCH 111 112
END_RES LEU A 124
BEGIN_RES PHE A 126
REMARK  2 active torsions:
REMARK  status: ('A' for Active; 'I' for Inactive)
REMARK   37  A    between atoms: CA   and  CB  
REMARK   38  A    between atoms: CB   and  CG  
ROOT
ATOM    116  CA  PHE A 126      -8.784  -4.792  22.233  1.00 23.15     0.180 C 
ENDROOT
BRANCH 116 117
ATOM    117  CB  PHE A 126      -9.823  -4.011  21.461  1.00 20.65     0.073 C 
BRANCH 117 118
ATOM    118  CG  PHE A 126     -10.955  -3.553  22.294  1.00 23.65    -0.056 A 
ATOM    119  CD2 PHE A 126     -12.209  -4.121  22.155  1.00 36.63     0.007 A 
ATOM    120  CE2 PHE A 126     -13.281  -3.686  22.947  1.00 36.27     0.001 A 
ATOM    121  CZ  PHE A 126     -13.089  -2.678  23.879  1.00 18.06     0.000 A 
ATOM    122  CE1 PHE A 126     -11.838  -2.110  24.022  1.00  5.50     0.001 A 
ATOM    123  CD1 PHE A 126     -10.776  -2.551  23.232  1.00 15.29     0.007 A 
ENDBRANCH 117 118
ENDBRANCH 116 117
END_RES PHE A 126
BEGIN_RES TRP A 131
REMARK  2 active torsions:
REMARK  status: ('A' for Active; 'I' for Inactive)
REMARK   39  A    between atoms: CA   and  CB  
REMARK   40  A    between atoms: CB   and  CG  
ROOT
ATOM    124  CA  TRP A 131      -8.096  -3.335  26.542  1.00 14.52     0.181 C 
ENDROOT
BRANCH 124 125
ATOM    125  CB  TRP A 131      -7.651  -1.877  26.607  1.00 13.06     0.075 C 
BRANCH 125 126
ATOM    126  CG  TRP A 131      -8.056  -1.050  25.407  1.00 16.97    -0.028 A 
ATOM    127  CD2 TRP A 131      -9.142  -0.122  25.339  1.00 11.34    -0.002 A 
ATOM    128  CE2 TRP A 131      -9.150   0.425  24.041  1.00  5.87     0.042 A 
ATOM    129  CE3 TRP A 131     -10.112   0.298  26.256  1.00  3.80     0.014 A 
ATOM    130  CZ2 TRP A 131     -10.090   1.375  23.637  1.00  1.35     0.030 A 
ATOM    131  NE1 TRP A 131      -8.117  -0.144  23.348  1.00 13.90    -0.365 N 
ATOM    132  CH2 TRP A 131     -11.029   1.770  24.557  1.00  1.00     0.002 A 
ATOM    133  CZ3 TRP A 131     -11.047   1.238  25.860  1.00  1.00     0.001 A 
ATOM    134  CD1 TRP A 131      -7.464  -1.029  24.174  1.00 17.22     0.096 A 
ATOM    135  H07 TRP A 131      -7.874   0.053  22.388  1.00 13.90     0.165 HD
ENDBRANCH 125 126
ENDBRANCH 124 125
END_RES TRP A 131
BEGIN_RES LEU A 148
REMARK  2 active torsions:
REMARK  status: ('A' for Active; 'I' for Inactive)
REMARK   41  A    between atoms: CA   and  CB  
REMARK   42  A    between atoms: CB   and  CG  
ROOT
ATOM    136  CA  LEU A 148      -9.018   3.259  29.295  1.00 16.99     0.177 C 
ENDROOT
BRANCH 136 137
ATOM    137  CB  LEU A 148      -8.166   2.574  28.236  1.00  6.39     0.038 C 
BRANCH 137 138
ATOM    138  CG  LEU A 148      -7.556   3.361  27.094  1.00  1.00    -0.020 C 
ATOM    139  CD2 LEU A 148      -8.633   4.006  26.272  1.00  1.00     0.009 C 
ATOM    140  CD1 LEU A 148      -6.735   2.407  26.245  1.00  2.71     0.009 C 
ENDBRANCH 137 138
ENDBRANCH 136 137
END_RES LEU A 148
BEGIN_RES THR A 154
REMARK  2 active torsions:
REMARK  status: ('A' for Active; 'I' for Inactive)
REMARK   43  A    between atoms: CA   and  CB  
REMARK   44  A    between atoms: CB   and  OG1 
ROOT
ATOM    141  CA  THR A 154     -15.990   3.959  24.426  1.00 20.45     0.205 C 
ENDROOT
BRANCH 141 142
ATOM    142  CB  THR A 154     -14.777   4.829  24.694  1.00 16.79     0.146 C 
ATOM    143  CG2 THR A 154     -13.678   4.517  23.696  1.00 20.24     0.042 C 
BRANCH 142 144
ATOM    144  OG1 THR A 154     -15.152   6.205  24.554  1.00 18.84    -0.393 OA
ATOM    145  H06 THR A 154     -16.078   6.310  24.786  1.00 18.84     0.210 HD
ENDBRANCH 142 144
ENDBRANCH 141 142
END_RES THR A 154
BEGIN_RES VAL A 158
REMARK  1 active torsions:
REMARK  status: ('A' for Active; 'I' for Inactive)
REMARK   45  A    between atoms: CA   and  CB  
ROOT
ATOM    146  CA  VAL A 158     -15.487  -0.189  19.892  1.00 15.49     0.180 C 
ENDROOT
BRANCH 146 147
ATOM    147  CB  VAL A 158     -14.291  -0.273  20.822  1.00  6.52     0.009 C 
ATOM    148  CG1 VAL A 158     -13.251  -1.225  20.278  1.00  1.00     0.012 C 
ATOM    149  CG2 VAL A 158     -13.716   1.099  20.990  1.00  5.99     0.012 C 
ENDBRANCH 146 147
END_RES VAL A 158
BEGIN_RES LEU A 161
REMARK  2 active torsions:
REMARK  status: ('A' for Active; 'I' for Inactive)
REMARK   46  A    between atoms: CA   and  CB  
REMARK   47  A    between atoms: CB   and  CG  
ROOT
ATOM    150  CA  LEU A 161     -18.031  -1.858  15.935  1.00 13.31     0.177 C 
ENDROOT
BRANCH 150 151
ATOM    151  CB  LEU A 161     -17.046  -0.706  16.001  1.00 14.13     0.038 C 
BRANCH 151 152
ATOM    152  CG  LEU A 161     -17.535   0.632  15.460  1.00 19.39    -0.020 C 
ATOM    153  CD2 LEU A 161     -17.447   0.649  13.953  1.00 27.75     0.009 C 
ATOM    154  CD1 LEU A 161     -16.686   1.731  16.039  1.00 18.59     0.009 C 
ENDBRANCH 151 152
ENDBRANCH 150 151
END_RES LEU A 161
BEGIN_RES GLN A 168
REMARK  3 active torsions:
REMARK  status: ('A' for Active; 'I' for Inactive)
REMARK   48  A    between atoms: CA   and  CB  
REMARK   49  A    between atoms: CB   and  CG  
REMARK   50  A    between atoms: CG   and  CD  
REMARK       I    between atoms: CD   and  NE2 
ROOT
ATOM    155  CA  GLN A 168     -22.035  -6.020   8.155  1.00 30.94     0.177 C 
ENDROOT
BRANCH 155 156
ATOM    156  CB  GLN A 168     -23.054  -5.218   8.946  1.00 41.76     0.044 C 
BRANCH 156 157
ATOM    157  CG  GLN A 168     -24.298  -5.980   9.315  1.00 61.20     0.105 C 
BRANCH 157 158
ATOM    158  CD  GLN A 168     -24.150  -6.694  10.645  1.00 75.49     0.215 C 
ATOM    159  NE2 GLN A 168     -24.189  -5.924  11.734  1.00 85.00    -0.370 N 
ATOM    160  H06 GLN A 168     -24.093  -6.340  12.650  1.00 85.00     0.159 HD
ATOM    161  H07 GLN A 168     -24.312  -4.926  11.643  1.00 85.00     0.159 HD
ATOM    162  OE1 GLN A 168     -23.997  -7.922  10.697  1.00 73.64    -0.274 OA
ENDBRANCH 157 158
ENDBRANCH 156 157
ENDBRANCH 155 156
END_RES GLN A 168
ENDMDL
MODEL 5
REMARK VINA RESULT:      -7.1      0.857      1.618
REMARK  Name = human_CD1d_ODG_pred.rank_0
REMARK  9 active torsions:
REMARK  status: ('A' for Active; 'I' for Inactive)
REMARK    1  A    between atoms: C_7  and  O_8
REMARK    2  A    between atoms: O_8  and  C_9
REMARK    3  A    between atoms: C_9  and  C_11
REMARK    4  A    between atoms: C_11  and  C_13
REMARK    5  A    between atoms: C_13  and  C_14
REMARK    6  A    between atoms: C_14  and  C_15
REMARK    7  A    between atoms: C_15  and  C_16
REMARK    8  A    between atoms: C_16  and  C_17
REMARK    9  A    between atoms: C_19  and  C_20
REMARK                            x       y       z     vdW  Elec       q    Type
REMARK                         _______ _______ _______ _____ _____    ______ ____
ROOT
ATOM      1  C   UNL     1     -13.630  -1.369  12.459  0.00  0.00    +0.000 C 
ATOM      2  O   UNL     1     -13.037  -2.655  12.611  0.00  0.00    +0.000 OA
ATOM      3  C   UNL     1     -13.441  -0.553  13.730  0.00  0.00    +0.000 C 
ATOM      4  O   UNL     1     -14.134  -1.151  14.784  0.00  0.00    +0.000 OA
ATOM      5  C   UNL     1     -13.963   0.862  13.515  0.00  0.00    +0.000 C 
ATOM      6  O   UNL     1     -13.652   1.641  14.688  0.00  0.00    +0.000 OA
ATOM      7  C   UNL     1     -13.221   1.494  12.321  0.00  0.00    +0.000 C 
ATOM      8  O   UNL     1     -13.479   0.725  11.110  0.00  0.00    +0.000 OA
ATOM      9  C   UNL     1     -12.966  -0.653  11.279  0.00  0.00    +0.000 C 
ENDROOT
BRANCH   9  11
ATOM     10  O   UNL     1     -13.841  -0.437   9.085  0.00  0.00    +0.000 OA
ATOM     11  C   UNL     1     -13.252  -1.390   9.974  0.00  0.00    +0.000 C 
ENDBRANCH   9  11
BRANCH   7  12
ATOM     12  O   UNL     1     -13.774   2.786  12.107  0.00  0.00    +0.000 OA
BRANCH  12  13
ATOM     13  C   UNL     1     -14.914   2.755  11.251  0.00  0.00    +0.000 C 
BRANCH  13  14
ATOM     14  C   UNL     1     -15.967   3.665  11.935  0.00  0.00    +0.000 C 
BRANCH  14  15
ATOM     15  C   UNL     1     -16.160   4.930  11.098  0.00  0.00    +0.000 C 
BRANCH  15  16
ATOM     16  C   UNL     1     -16.021   4.562   9.605  0.00  0.00    +0.000 C 
BRANCH  16  17
ATOM     17  C   UNL     1     -16.409   5.753   8.789  0.00  0.00    +0.000 C 
BRANCH  17  18
ATOM     18  C   UNL     1     -15.609   5.727   7.479  0.00  0.00    +0.000 C 
BRANCH  18  19
ATOM     19  C   UNL     1     -14.934   4.390   7.372  0.00  0.00    +0.000 C 
ATOM     20  C   UNL     1     -13.649   4.542   6.571  0.00  0.00    +0.000 C 
ENDBRANCH  18  19
ENDBRANCH  17  18
ENDBRANCH  16  17
ENDBRANCH  15  16
ENDBRANCH  14  15
ENDBRANCH  13  14
ENDBRANCH  12  13
ENDBRANCH   7  12
TORSDOF 9
BEGIN_RES LEU A  10
REMARK  2 active torsions:
REMARK  status: ('A' for Active; 'I' for Inactive)
REMARK    1  A    between atoms: CA   and  CB  
REMARK    2  A    between atoms: CB   and  CG  
ROOT
ATOM      1  CA  LEU A  10     -10.775  -4.871   5.898  1.00 25.14     0.177 C 
ENDROOT
BRANCH   1   2
ATOM      2  CB  LEU A  10     -12.191  -4.387   6.226  1.00 17.87     0.038 C 
BRANCH   2   3
ATOM      3  CG  LEU A  10     -12.708  -3.276   5.310  1.00 24.95    -0.020 C 
ATOM      4  CD2 LEU A  10     -13.520  -2.319   6.116  1.00 26.38     0.009 C 
ATOM      5  CD1 LEU A  10     -13.533  -3.850   4.171  1.00 28.12     0.009 C 
ENDBRANCH   2   3
ENDBRANCH   1   2
END_RES LEU A  10
BEGIN_RES CYS A  12
REMARK  2 active torsions:
REMARK  status: ('A' for Active; 'I' for Inactive)
REMARK    3  A    between atoms: CA   and  CB  
REMARK    4  A    between atoms: CB   and  SG  
ROOT
ATOM      6  CA  CYS A  12      -8.555   0.470   8.750  1.00 23.16     0.185 C 
ENDROOT
BRANCH   6   7
ATOM      7  CB  CYS A  12      -9.828   0.763   9.555  1.00 20.43     0.105 C 
BRANCH   7   8
ATOM      8  SG  CYS A  12     -10.949   2.011   8.852  1.00 24.64    -0.180 SA
ATOM      9  H04 CYS A  12     -12.162   1.472   8.671  1.00 24.64     0.101 HD
ENDBRANCH   7   8
ENDBRANCH   6   7
END_RES CYS A  12
BEGIN_RES GLN A  14
REMARK  3 active torsions:
REMARK  status: ('A' for Active; 'I' for Inactive)
REMARK    5  A    between atoms: CA   and  CB  
REMARK    6  A    between atoms: CB   and  CG  
REMARK    7  A    between atoms: CG   and  CD  
REMARK       I    between atoms: CD   and  NE2 
ROOT
ATOM     10  CA  GLN A  14      -4.645   5.402  11.377  1.00 10.43     0.177 C 
ENDROOT
BRANCH  10  11
ATOM     11  CB  GLN A  14      -5.541   5.549  12.608  1.00 14.45     0.044 C 
BRANCH  11  12
ATOM     12  CG  GLN A  14      -6.613   6.605  12.468  1.00 13.74     0.105 C 
BRANCH  12  13
ATOM     13  CD  GLN A  14      -6.039   7.993  12.313  1.00 16.29     0.215 C 
ATOM     14  NE2 GLN A  14      -6.633   8.779  11.441  1.00  8.57    -0.370 N 
ATOM     15  H06 GLN A  14      -6.294   9.719  11.296  1.00  8.57     0.159 HD
ATOM     16  H07 GLN A  14      -7.428   8.442  10.917  1.00  8.57     0.159 HD
ATOM     17  OE1 GLN A  14      -5.076   8.354  12.972  1.00 23.55    -0.274 OA
ENDBRANCH  12  13
ENDBRANCH  11  12
ENDBRANCH  10  11
END_RES GLN A  14
BEGIN_RES SER A  16
REMARK  2 active torsions:
REMARK  status: ('A' for Active; 'I' for Inactive)
REMARK    8  A    between atoms: CA   and  CB  
REMARK    9  A    between atoms: CB   and  OG  
ROOT
ATOM     18  CA  SER A  16      -1.305  10.019  14.282  1.00  2.34     0.200 C 
ENDROOT
BRANCH  18  19
ATOM     19  CB  SER A  16      -2.242   9.935  15.479  1.00  3.12     0.199 C 
BRANCH  19  20
ATOM     20  OG  SER A  16      -3.471   9.340  15.102  1.00  1.00    -0.398 OA
ATOM     21  H04 SER A  16      -4.101   9.421  15.822  1.00  1.00     0.209 HD
ENDBRANCH  19  20
ENDBRANCH  18  19
END_RES SER A  16
BEGIN_RES LEU A  32
REMARK  2 active torsions:
REMARK  status: ('A' for Active; 'I' for Inactive)
REMARK   10  A    between atoms: CA   and  CB  
REMARK   11  A    between atoms: CB   and  CG  
ROOT
ATOM     22  CA  LEU A  32     -10.272  -4.106   1.587  1.00 16.16     0.177 C 
ENDROOT
BRANCH  22  23
ATOM     23  CB  LEU A  32     -11.613  -3.858   0.880  1.00 12.35     0.038 C 
BRANCH  23  24
ATOM     24  CG  LEU A  32     -12.586  -5.041   1.063  1.00  9.77    -0.020 C 
ATOM     25  CD1 LEU A  32     -13.998  -4.613   0.742  1.00  4.35     0.009 C 
ATOM     26  CD2 LEU A  32     -12.194  -6.200   0.185  1.00 10.60     0.009 C 
ENDBRANCH  23  24
ENDBRANCH  22  23
END_RES LEU A  32
BEGIN_RES HIS A  38
REMARK  2 active torsions:
REMARK  status: ('A' for Active; 'I' for Inactive)
REMARK   12  A    between atoms: CA   and  CB  
REMARK   13  A    between atoms: CB   and  CG  
ROOT
ATOM     27  CA  HIS A  38     -10.959   4.941   1.621  1.00 16.94     0.182 C 
ENDROOT
BRANCH  27  28
ATOM     28  CB  HIS A  38     -11.810   4.840   2.881  1.00 15.47     0.095 C 
BRANCH  28  29
ATOM     29  CG  HIS A  38     -12.995   3.940   2.739  1.00 18.62     0.053 A 
ATOM     30  CD2 HIS A  38     -14.156   4.100   2.060  1.00 15.06     0.116 A 
ATOM     31  NE2 HIS A  38     -14.888   2.954   2.239  1.00 18.12    -0.359 N 
ATOM     32  CE1 HIS A  38     -14.204   2.121   3.000  1.00 14.78     0.207 A 
ATOM     33  H06 HIS A  38     -15.803   2.777   1.850  1.00 18.12     0.166 HD
ATOM     34  ND1 HIS A  38     -13.059   2.691   3.316  1.00 16.58    -0.247 NA
ENDBRANCH  28  29
ENDBRANCH  27  28
END_RES HIS A  38
BEGIN_RES TRP A  63
REMARK  2 active torsions:
REMARK  status: ('A' for Active; 'I' for Inactive)
REMARK   14  A    between atoms: CA   and  CB  
REMARK   15  A    between atoms: CB   and  CG  
ROOT
ATOM     35  CA  TRP A  63     -22.437   6.257   6.543  1.00 27.04     0.181 C 
ENDROOT
BRANCH  35  36
ATOM     36  CB  TRP A  63     -22.360   6.642   5.068  1.00 31.37     0.075 C 
BRANCH  36  37
ATOM     37  CG  TRP A  63     -20.954   6.728   4.513  1.00 34.37    -0.028 A 
ATOM     38  CD2 TRP A  63     -19.893   5.778   4.686  1.00 33.79    -0.002 A 
ATOM     39  CE3 TRP A  63     -19.763   4.585   5.401  1.00 32.99     0.014 A 
ATOM     40  CE2 TRP A  63     -18.792   6.240   3.932  1.00 35.84     0.042 A 
ATOM     41  CZ3 TRP A  63     -18.558   3.900   5.343  1.00 32.93     0.001 A 
ATOM     42  CH2 TRP A  63     -17.481   4.386   4.584  1.00 39.24     0.002 A 
ATOM     43  CZ2 TRP A  63     -17.580   5.552   3.873  1.00 37.99     0.030 A 
ATOM     44  NE1 TRP A  63     -19.170   7.411   3.335  1.00 37.98    -0.365 N 
ATOM     45  H06 TRP A  63     -18.590   7.975   2.730  1.00 37.98     0.165 HD
ATOM     46  CD1 TRP A  63     -20.466   7.695   3.691  1.00 38.16     0.096 A 
ENDBRANCH  36  37
ENDBRANCH  35  36
END_RES TRP A  63
BEGIN_RES LEU A  66
REMARK  2 active torsions:
REMARK  status: ('A' for Active; 'I' for Inactive)
REMARK   16  A    between atoms: CA   and  CB  
REMARK   17  A    between atoms: CB   and  CG  
ROOT
ATOM     47  CA  LEU A  66     -20.004   6.489  11.120  1.00 10.90     0.177 C 
ENDROOT
BRANCH  47  48
ATOM     48  CB  LEU A  66     -19.626   5.453  10.069  1.00 13.57     0.038 C 
BRANCH  48  49
ATOM     49  CG  LEU A  66     -20.028   4.004  10.339  1.00  8.73    -0.020 C 
ATOM     50  CD1 LEU A  66     -19.347   3.074   9.369  1.00 14.23     0.009 C 
ATOM     51  CD2 LEU A  66     -19.636   3.654  11.752  1.00  1.92     0.009 C 
ENDBRANCH  48  49
ENDBRANCH  47  48
END_RES LEU A  66
BEGIN_RES PHE A  70
REMARK  2 active torsions:
REMARK  status: ('A' for Active; 'I' for Inactive)
REMARK   18  A    between atoms: CA   and  CB  
REMARK   19  A    between atoms: CB   and  CG  
ROOT
ATOM     52  CA  PHE A  70     -14.974   9.434  13.165  1.00  8.78     0.180 C 
ENDROOT
BRANCH  52  53
ATOM     53  CB  PHE A  70     -14.707   9.132  11.681  1.00  6.33     0.073 C 
BRANCH  53  54
ATOM     54  CG  PHE A  70     -13.881   7.894  11.462  1.00  3.42    -0.056 A 
ATOM     55  CD1 PHE A  70     -13.582   7.451  10.182  1.00 13.88     0.007 A 
ATOM     56  CE1 PHE A  70     -12.850   6.267   9.984  1.00 12.71     0.001 A 
ATOM     57  CZ  PHE A  70     -12.412   5.521  11.079  1.00  4.21     0.000 A 
ATOM     58  CE2 PHE A  70     -12.701   5.954  12.359  1.00  2.83     0.001 A 
ATOM     59  CD2 PHE A  70     -13.434   7.139  12.547  1.00  1.00     0.007 A 
ENDBRANCH  53  54
ENDBRANCH  52  53
END_RES PHE A  70
BEGIN_RES TYR A  73
REMARK  3 active torsions:
REMARK  status: ('A' for Active; 'I' for Inactive)
REMARK   20  A    between atoms: CA   and  CB  
REMARK   21  A    between atoms: CB   and  CG  
REMARK   22  A    between atoms: CZ   and  OH  
ROOT
ATOM     60  CA  TYR A  73     -13.212  10.166  17.260  1.00 12.17     0.180 C 
ENDROOT
BRANCH  60  61
ATOM     61  CB  TYR A  73     -13.301   8.846  16.517  1.00 12.84     0.073 C 
BRANCH  61  62
ATOM     62  CG  TYR A  73     -13.408   7.671  17.425  1.00 15.89    -0.056 A 
ATOM     63  CD1 TYR A  73     -13.581   6.399  16.925  1.00 16.00     0.010 A 
ATOM     64  CE1 TYR A  73     -13.712   5.302  17.775  1.00 13.55     0.037 A 
ATOM     65  CZ  TYR A  73     -13.668   5.494  19.142  1.00 18.13     0.065 A 
ATOM     66  CE2 TYR A  73     -13.495   6.754  19.666  1.00 15.89     0.037 A 
ATOM     67  CD2 TYR A  73     -13.365   7.836  18.805  1.00 21.86     0.010 A 
BRANCH  65  68
ATOM     68  OH  TYR A  73     -13.789   4.427  19.997  1.00 12.12    -0.361 OA
ATOM     69  H08 TYR A  73     -14.075   3.653  19.505  1.00 12.12     0.217 HD
ENDBRANCH  65  68
ENDBRANCH  61  62
ENDBRANCH  60  61
END_RES TYR A  73
BEGIN_RES PHE A  77
REMARK  2 active torsions:
REMARK  status: ('A' for Active; 'I' for Inactive)
REMARK   23  A    between atoms: CA   and  CB  
REMARK   24  A    between atoms: CB   and  CG  
ROOT
ATOM     70  CA  PHE A  77      -8.400  10.581  20.110  1.00 17.17     0.180 C 
ENDROOT
BRANCH  70  71
ATOM     71  CB  PHE A  77      -8.228   9.750  18.851  1.00 10.44     0.073 C 
BRANCH  71  72
ATOM     72  CG  PHE A  77      -8.846   8.390  18.937  1.00  6.07    -0.056 A 
ATOM     73  CD2 PHE A  77      -9.339   7.773  17.810  1.00  9.61     0.007 A 
ATOM     74  CE2 PHE A  77      -9.913   6.509  17.881  1.00  1.00     0.001 A 
ATOM     75  CZ  PHE A  77      -9.992   5.852  19.097  1.00  1.92     0.000 A 
ATOM     76  CE1 PHE A  77      -9.502   6.455  20.234  1.00  9.25     0.001 A 
ATOM     77  CD1 PHE A  77      -8.930   7.724  20.149  1.00  9.63     0.007 A 
ENDBRANCH  71  72
ENDBRANCH  70  71
END_RES PHE A  77
BEGIN_RES LEU A  96
REMARK  2 active torsions:
REMARK  status: ('A' for Active; 'I' for Inactive)
REMARK   25  A    between atoms: CA   and  CB  
REMARK   26  A    between atoms: CB   and  CG  
ROOT
ATOM     78  CA  LEU A  96       0.717   6.481  17.359  1.00 16.08     0.177 C 
ENDROOT
BRANCH  78  79
ATOM     79  CB  LEU A  96      -0.370   7.101  18.230  1.00 18.83     0.038 C 
BRANCH  79  80
ATOM     80  CG  LEU A  96      -0.931   6.169  19.304  1.00 19.03    -0.020 C 
ATOM     81  CD1 LEU A  96       0.204   5.697  20.182  1.00 28.17     0.009 C 
ATOM     82  CD2 LEU A  96      -1.931   6.902  20.168  1.00 22.01     0.009 C 
ENDBRANCH  79  80
ENDBRANCH  78  79
END_RES LEU A  96
BEGIN_RES VAL A  98
REMARK  1 active torsions:
REMARK  status: ('A' for Active; 'I' for Inactive)
REMARK   27  A    between atoms: CA   and  CB  
ROOT
ATOM     83  CA  VAL A  98      -3.928   2.082  14.897  1.00 19.83     0.180 C 
ENDROOT
BRANCH  83  84
ATOM     84  CB  VAL A  98      -5.203   2.807  15.281  1.00 17.87     0.009 C 
ATOM     85  CG2 VAL A  98      -5.223   3.066  16.765  1.00 29.90     0.012 C 
ATOM     86  CG1 VAL A  98      -6.401   1.981  14.863  1.00 14.79     0.012 C 
ENDBRANCH  83  84
END_RES VAL A  98
BEGIN_RES ASN A 112
REMARK  2 active torsions:
REMARK  status: ('A' for Active; 'I' for Inactive)
REMARK   28  A    between atoms: CA   and  CB  
REMARK   29  A    between atoms: CB   and  CG  
REMARK       I    between atoms: CG   and  ND2 
ROOT
ATOM     87  CA  ASN A 112     -11.790  -8.793  14.069  1.00 37.70     0.185 C 
ENDROOT
BRANCH  87  88
ATOM     88  CB  ASN A 112     -12.992  -7.945  14.465  1.00 26.24     0.137 C 
BRANCH  88  89
ATOM     89  CG  ASN A 112     -13.811  -8.561  15.577  1.00 21.77     0.217 C 
ATOM     90  ND2 ASN A 112     -14.958  -9.135  15.214  1.00  9.31    -0.370 N 
ATOM     91  H04 ASN A 112     -15.551  -9.563  15.911  1.00  9.31     0.159 HD
ATOM     92  H05 ASN A 112     -15.233  -9.143  14.242  1.00  9.31     0.159 HD
ATOM     93  OD1 ASN A 112     -13.424  -8.519  16.751  1.00 21.61    -0.274 OA
ENDBRANCH  88  89
ENDBRANCH  87  88
END_RES ASN A 112
BEGIN_RES PHE A 114
REMARK  2 active torsions:
REMARK  status: ('A' for Active; 'I' for Inactive)
REMARK   30  A    between atoms: CA   and  CB  
REMARK   31  A    between atoms: CB   and  CG  
ROOT
ATOM     94  CA  PHE A 114      -7.754  -3.619  17.012  1.00 26.06     0.180 C 
ENDROOT
BRANCH  94  95
ATOM     95  CB  PHE A 114      -8.890  -3.080  17.867  1.00 19.95     0.073 C 
BRANCH  95  96
ATOM     96  CG  PHE A 114      -9.180  -1.635  17.623  1.00 17.65    -0.056 A 
ATOM     97  CD1 PHE A 114      -8.148  -0.704  17.543  1.00 13.01     0.007 A 
ATOM     98  CE1 PHE A 114      -8.419   0.644  17.346  1.00  6.74     0.001 A 
ATOM     99  CZ  PHE A 114      -9.735   1.080  17.222  1.00  6.27     0.000 A 
ATOM    100  CE2 PHE A 114     -10.770   0.163  17.299  1.00 17.36     0.001 A 
ATOM    101  CD2 PHE A 114     -10.491  -1.193  17.499  1.00 18.39     0.007 A 
ENDBRANCH  95  96
ENDBRANCH  94  95
END_RES PHE A 114
BEGIN_RES VAL A 116
REMARK  1 active torsions:
REMARK  status: ('A' for Active; 'I' for Inactive)
REMARK   32  A    between atoms: CA   and  CB  
ROOT
ATOM    102  CA  VAL A 116      -2.467   0.283  18.565  1.00 13.48     0.180 C 
ENDROOT
BRANCH 102 103
ATOM    103  CB  VAL A 116      -3.101   1.238  19.599  1.00 20.86     0.009 C 
ATOM    104  CG1 VAL A 116      -2.723   2.683  19.260  1.00 25.01     0.012 C 
ATOM    105  CG2 VAL A 116      -4.599   1.053  19.655  1.00 25.34     0.012 C 
ENDBRANCH 102 103
END_RES VAL A 116
BEGIN_RES ILE A 123
REMARK  2 active torsions:
REMARK  status: ('A' for Active; 'I' for Inactive)
REMARK   33  A    between atoms: CA   and  CB  
REMARK   34  A    between atoms: CB   and  CG1 
ROOT
ATOM    106  CA  ILE A 123       1.557  -1.626  23.222  1.00 15.07     0.180 C 
ENDROOT
BRANCH 106 107
ATOM    107  CB  ILE A 123       1.697  -0.112  23.461  1.00 14.41     0.013 C 
ATOM    108  CG2 ILE A 123       3.094   0.205  23.965  1.00 18.35     0.012 C 
BRANCH 107 109
ATOM    109  CG1 ILE A 123       1.414   0.657  22.173  1.00 15.23     0.002 C 
ATOM    110  CD1 ILE A 123       0.205   1.557  22.258  1.00 14.67     0.005 C 
ENDBRANCH 107 109
ENDBRANCH 106 107
END_RES ILE A 123
BEGIN_RES LEU A 124
REMARK  2 active torsions:
REMARK  status: ('A' for Active; 'I' for Inactive)
REMARK   35  A    between atoms: CA   and  CB  
REMARK   36  A    between atoms: CB   and  CG  
ROOT
ATOM    111  CA  LEU A 124      -2.057  -2.686  23.524  1.00 11.86     0.177 C 
ENDROOT
BRANCH 111 112
ATOM    112  CB  LEU A 124      -2.698  -1.652  24.429  1.00 14.60     0.038 C 
BRANCH 112 113
ATOM    113  CG  LEU A 124      -2.616  -0.250  23.843  1.00 16.19    -0.020 C 
ATOM    114  CD1 LEU A 124      -4.020   0.182  23.378  1.00 22.07     0.009 C 
ATOM    115  CD2 LEU A 124      -2.050   0.693  24.874  1.00  9.12     0.009 C 
ENDBRANCH 112 113
ENDBRANCH 111 112
END_RES LEU A 124
BEGIN_RES PHE A 126
REMARK  2 active torsions:
REMARK  status: ('A' for Active; 'I' for Inactive)
REMARK   37  A    between atoms: CA   and  CB  
REMARK   38  A    between atoms: CB   and  CG  
ROOT
ATOM    116  CA  PHE A 126      -8.784  -4.792  22.233  1.00 23.15     0.180 C 
ENDROOT
BRANCH 116 117
ATOM    117  CB  PHE A 126      -9.823  -4.011  21.461  1.00 20.65     0.073 C 
BRANCH 117 118
ATOM    118  CG  PHE A 126     -10.955  -3.552  22.294  1.00 23.65    -0.056 A 
ATOM    119  CD2 PHE A 126     -12.207  -4.126  22.161  1.00 36.63     0.007 A 
ATOM    120  CE2 PHE A 126     -13.279  -3.691  22.952  1.00 36.27     0.001 A 
ATOM    121  CZ  PHE A 126     -13.088  -2.677  23.879  1.00 18.06     0.000 A 
ATOM    122  CE1 PHE A 126     -11.840  -2.104  24.016  1.00  5.50     0.001 A 
ATOM    123  CD1 PHE A 126     -10.778  -2.545  23.227  1.00 15.29     0.007 A 
ENDBRANCH 117 118
ENDBRANCH 116 117
END_RES PHE A 126
BEGIN_RES TRP A 131
REMARK  2 active torsions:
REMARK  status: ('A' for Active; 'I' for Inactive)
REMARK   39  A    between atoms: CA   and  CB  
REMARK   40  A    between atoms: CB   and  CG  
ROOT
ATOM    124  CA  TRP A 131      -8.096  -3.335  26.542  1.00 14.52     0.181 C 
ENDROOT
BRANCH 124 125
ATOM    125  CB  TRP A 131      -7.651  -1.877  26.607  1.00 13.06     0.075 C 
BRANCH 125 126
ATOM    126  CG  TRP A 131      -8.042  -1.054  25.400  1.00 16.97    -0.028 A 
ATOM    127  CD2 TRP A 131      -9.128  -0.127  25.316  1.00 11.34    -0.002 A 
ATOM    128  CE2 TRP A 131      -9.122   0.417  24.017  1.00  5.87     0.042 A 
ATOM    129  CE3 TRP A 131     -10.109   0.295  26.221  1.00  3.80     0.014 A 
ATOM    130  CZ2 TRP A 131     -10.057   1.364  23.599  1.00  1.35     0.030 A 
ATOM    131  NE1 TRP A 131      -8.080  -0.154  23.338  1.00 13.90    -0.365 N 
ATOM    132  CH2 TRP A 131     -11.007   1.761  24.506  1.00  1.00     0.002 A 
ATOM    133  CZ3 TRP A 131     -11.040   1.233  25.811  1.00  1.00     0.001 A 
ATOM    134  CD1 TRP A 131      -7.435  -1.036  24.174  1.00 17.22     0.096 A 
ATOM    135  H07 TRP A 131      -7.826   0.040  22.380  1.00 13.90     0.165 HD
ENDBRANCH 125 126
ENDBRANCH 124 125
END_RES TRP A 131
BEGIN_RES LEU A 148
REMARK  2 active torsions:
REMARK  status: ('A' for Active; 'I' for Inactive)
REMARK   41  A    between atoms: CA   and  CB  
REMARK   42  A    between atoms: CB   and  CG  
ROOT
ATOM    136  CA  LEU A 148      -9.018   3.259  29.295  1.00 16.99     0.177 C 
ENDROOT
BRANCH 136 137
ATOM    137  CB  LEU A 148      -8.166   2.574  28.236  1.00  6.39     0.038 C 
BRANCH 137 138
ATOM    138  CG  LEU A 148      -8.015   3.166  26.850  1.00  1.00    -0.020 C 
ATOM    139  CD2 LEU A 148      -6.819   2.579  26.159  1.00  1.00     0.009 C 
ATOM    140  CD1 LEU A 148      -7.867   4.670  26.989  1.00  2.71     0.009 C 
ENDBRANCH 137 138
ENDBRANCH 136 137
END_RES LEU A 148
BEGIN_RES THR A 154
REMARK  2 active torsions:
REMARK  status: ('A' for Active; 'I' for Inactive)
REMARK   43  A    between atoms: CA   and  CB  
REMARK   44  A    between atoms: CB   and  OG1 
ROOT
ATOM    141  CA  THR A 154     -15.990   3.959  24.426  1.00 20.45     0.205 C 
ENDROOT
BRANCH 141 142
ATOM    142  CB  THR A 154     -14.777   4.829  24.694  1.00 16.79     0.146 C 
ATOM    143  CG2 THR A 154     -13.682   4.525  23.689  1.00 20.24     0.042 C 
BRANCH 142 144
ATOM    144  OG1 THR A 154     -15.155   6.205  24.565  1.00 18.84    -0.393 OA
ATOM    145  H06 THR A 154     -15.365   6.395  23.648  1.00 18.84     0.210 HD
ENDBRANCH 142 144
ENDBRANCH 141 142
END_RES THR A 154
BEGIN_RES VAL A 158
REMARK  1 active torsions:
REMARK  status: ('A' for Active; 'I' for Inactive)
REMARK   45  A    between atoms: CA   and  CB  
ROOT
ATOM    146  CA  VAL A 158     -15.487  -0.189  19.892  1.00 15.49     0.180 C 
ENDROOT
BRANCH 146 147
ATOM    147  CB  VAL A 158     -14.291  -0.273  20.822  1.00  6.52     0.009 C 
ATOM    148  CG1 VAL A 158     -13.252  -1.227  20.279  1.00  1.00     0.012 C 
ATOM    149  CG2 VAL A 158     -13.715   1.099  20.988  1.00  5.99     0.012 C 
ENDBRANCH 146 147
END_RES VAL A 158
BEGIN_RES LEU A 161
REMARK  2 active torsions:
REMARK  status: ('A' for Active; 'I' for Inactive)
REMARK   46  A    between atoms: CA   and  CB  
REMARK   47  A    between atoms: CB   and  CG  
ROOT
ATOM    150  CA  LEU A 161     -18.031  -1.858  15.935  1.00 13.31     0.177 C 
ENDROOT
BRANCH 150 151
ATOM    151  CB  LEU A 161     -17.046  -0.706  16.001  1.00 14.13     0.038 C 
BRANCH 151 152
ATOM    152  CG  LEU A 161     -17.438   0.560  15.250  1.00 19.39    -0.020 C 
ATOM    153  CD2 LEU A 161     -18.810   1.019  15.679  1.00 27.75     0.009 C 
ATOM    154  CD1 LEU A 161     -17.428   0.273  13.773  1.00 18.59     0.009 C 
ENDBRANCH 151 152
ENDBRANCH 150 151
END_RES LEU A 161
BEGIN_RES GLN A 168
REMARK  3 active torsions:
REMARK  status: ('A' for Active; 'I' for Inactive)
REMARK   48  A    between atoms: CA   and  CB  
REMARK   49  A    between atoms: CB   and  CG  
REMARK   50  A    between atoms: CG   and  CD  
REMARK       I    between atoms: CD   and  NE2 
ROOT
ATOM    155  CA  GLN A 168     -22.035  -6.020   8.155  1.00 30.94     0.177 C 
ENDROOT
BRANCH 155 156
ATOM    156  CB  GLN A 168     -23.054  -5.218   8.946  1.00 41.76     0.044 C 
BRANCH 156 157
ATOM    157  CG  GLN A 168     -24.479  -5.665   8.762  1.00 61.20     0.105 C 
BRANCH 157 158
ATOM    158  CD  GLN A 168     -25.076  -5.136   7.472  1.00 75.49     0.215 C 
ATOM    159  NE2 GLN A 168     -25.416  -6.050   6.561  1.00 85.00    -0.370 N 
ATOM    160  H06 GLN A 168     -25.816  -5.760   5.681  1.00 85.00     0.159 HD
ATOM    161  H07 GLN A 168     -25.273  -7.031   6.753  1.00 85.00     0.159 HD
ATOM    162  OE1 GLN A 168     -25.225  -3.920   7.289  1.00 73.64    -0.274 OA
ENDBRANCH 157 158
ENDBRANCH 156 157
ENDBRANCH 155 156
END_RES GLN A 168
ENDMDL
MODEL 6
REMARK VINA RESULT:      -7.0      2.396      7.398
REMARK  Name = human_CD1d_ODG_pred.rank_0
REMARK  9 active torsions:
REMARK  status: ('A' for Active; 'I' for Inactive)
REMARK    1  A    between atoms: C_7  and  O_8
REMARK    2  A    between atoms: O_8  and  C_9
REMARK    3  A    between atoms: C_9  and  C_11
REMARK    4  A    between atoms: C_11  and  C_13
REMARK    5  A    between atoms: C_13  and  C_14
REMARK    6  A    between atoms: C_14  and  C_15
REMARK    7  A    between atoms: C_15  and  C_16
REMARK    8  A    between atoms: C_16  and  C_17
REMARK    9  A    between atoms: C_19  and  C_20
REMARK                            x       y       z     vdW  Elec       q    Type
REMARK                         _______ _______ _______ _____ _____    ______ ____
ROOT
ATOM      1  C   UNL     1      -5.795   5.845  19.659  0.00  0.00    +0.000 C 
ATOM      2  O   UNL     1      -6.458   5.564  18.430  0.00  0.00    +0.000 OA
ATOM      3  C   UNL     1      -5.808   4.612  20.553  0.00  0.00    +0.000 C 
ATOM      4  O   UNL     1      -7.121   4.300  20.909  0.00  0.00    +0.000 OA
ATOM      5  C   UNL     1      -4.988   4.879  21.808  0.00  0.00    +0.000 C 
ATOM      6  O   UNL     1      -4.913   3.656  22.567  0.00  0.00    +0.000 OA
ATOM      7  C   UNL     1      -3.553   5.266  21.397  0.00  0.00    +0.000 C 
ATOM      8  O   UNL     1      -3.575   6.486  20.600  0.00  0.00    +0.000 OA
ATOM      9  C   UNL     1      -4.349   6.255  19.361  0.00  0.00    +0.000 C 
ENDROOT
BRANCH   9  11
ATOM     10  O   UNL     1      -3.803   7.242  17.275  0.00  0.00    +0.000 OA
ATOM     11  C   UNL     1      -4.314   7.560  18.572  0.00  0.00    +0.000 C 
ENDBRANCH   9  11
BRANCH   7  12
ATOM     12  O   UNL     1      -2.834   5.570  22.585  0.00  0.00    +0.000 OA
BRANCH  12  13
ATOM     13  C   UNL     1      -1.756   4.665  22.816  0.00  0.00    +0.000 C 
BRANCH  13  14
ATOM     14  C   UNL     1      -1.793   4.361  24.336  0.00  0.00    +0.000 C 
BRANCH  14  15
ATOM     15  C   UNL     1      -0.362   4.249  24.862  0.00  0.00    +0.000 C 
BRANCH  15  16
ATOM     16  C   UNL     1       0.576   5.029  23.917  0.00  0.00    +0.000 C 
BRANCH  16  17
ATOM     17  C   UNL     1       1.024   6.272  24.616  0.00  0.00    +0.000 C 
BRANCH  17  18
ATOM     18  C   UNL     1       0.360   7.478  23.939  0.00  0.00    +0.000 C 
BRANCH  18  19
ATOM     19  C   UNL     1       0.521   8.666  24.841  0.00  0.00    +0.000 C 
ATOM     20  C   UNL     1       1.721   9.482  24.385  0.00  0.00    +0.000 C 
ENDBRANCH  18  19
ENDBRANCH  17  18
ENDBRANCH  16  17
ENDBRANCH  15  16
ENDBRANCH  14  15
ENDBRANCH  13  14
ENDBRANCH  12  13
ENDBRANCH   7  12
TORSDOF 9
BEGIN_RES LEU A  10
REMARK  2 active torsions:
REMARK  status: ('A' for Active; 'I' for Inactive)
REMARK    1  A    between atoms: CA   and  CB  
REMARK    2  A    between atoms: CB   and  CG  
ROOT
ATOM      1  CA  LEU A  10     -10.775  -4.871   5.898  1.00 25.14     0.177 C 
ENDROOT
BRANCH   1   2
ATOM      2  CB  LEU A  10     -12.191  -4.387   6.226  1.00 17.87     0.038 C 
BRANCH   2   3
ATOM      3  CG  LEU A  10     -12.391  -2.876   6.088  1.00 24.95    -0.020 C 
ATOM      4  CD2 LEU A  10     -13.680  -2.495   6.734  1.00 26.38     0.009 C 
ATOM      5  CD1 LEU A  10     -12.381  -2.459   4.627  1.00 28.12     0.009 C 
ENDBRANCH   2   3
ENDBRANCH   1   2
END_RES LEU A  10
BEGIN_RES CYS A  12
REMARK  2 active torsions:
REMARK  status: ('A' for Active; 'I' for Inactive)
REMARK    3  A    between atoms: CA   and  CB  
REMARK    4  A    between atoms: CB   and  SG  
ROOT
ATOM      6  CA  CYS A  12      -8.555   0.470   8.750  1.00 23.16     0.185 C 
ENDROOT
BRANCH   6   7
ATOM      7  CB  CYS A  12      -9.828   0.763   9.555  1.00 20.43     0.105 C 
BRANCH   7   8
ATOM      8  SG  CYS A  12     -10.942   2.022   8.860  1.00 24.64    -0.180 SA
ATOM      9  H04 CYS A  12     -10.719   3.198   9.462  1.00 24.64     0.101 HD
ENDBRANCH   7   8
ENDBRANCH   6   7
END_RES CYS A  12
BEGIN_RES GLN A  14
REMARK  3 active torsions:
REMARK  status: ('A' for Active; 'I' for Inactive)
REMARK    5  A    between atoms: CA   and  CB  
REMARK    6  A    between atoms: CB   and  CG  
REMARK    7  A    between atoms: CG   and  CD  
REMARK       I    between atoms: CD   and  NE2 
ROOT
ATOM     10  CA  GLN A  14      -4.645   5.402  11.377  1.00 10.43     0.177 C 
ENDROOT
BRANCH  10  11
ATOM     11  CB  GLN A  14      -5.541   5.549  12.608  1.00 14.45     0.044 C 
BRANCH  11  12
ATOM     12  CG  GLN A  14      -6.598   6.621  12.477  1.00 13.74     0.105 C 
BRANCH  12  13
ATOM     13  CD  GLN A  14      -7.930   6.066  12.031  1.00 16.29     0.215 C 
ATOM     14  NE2 GLN A  14      -8.081   5.872  10.739  1.00  8.57    -0.370 N 
ATOM     15  H06 GLN A  14      -8.950   5.501  10.383  1.00  8.57     0.159 HD
ATOM     16  H07 GLN A  14      -7.328   6.092  10.104  1.00  8.57     0.159 HD
ATOM     17  OE1 GLN A  14      -8.810   5.814  12.839  1.00 23.55    -0.274 OA
ENDBRANCH  12  13
ENDBRANCH  11  12
ENDBRANCH  10  11
END_RES GLN A  14
BEGIN_RES SER A  16
REMARK  2 active torsions:
REMARK  status: ('A' for Active; 'I' for Inactive)
REMARK    8  A    between atoms: CA   and  CB  
REMARK    9  A    between atoms: CB   and  OG  
ROOT
ATOM     18  CA  SER A  16      -1.305  10.019  14.282  1.00  2.34     0.200 C 
ENDROOT
BRANCH  18  19
ATOM     19  CB  SER A  16      -2.242   9.935  15.479  1.00  3.12     0.199 C 
BRANCH  19  20
ATOM     20  OG  SER A  16      -3.454   9.299  15.112  1.00  1.00    -0.398 OA
ATOM     21  H04 SER A  16      -4.142   9.959  15.005  1.00  1.00     0.209 HD
ENDBRANCH  19  20
ENDBRANCH  18  19
END_RES SER A  16
BEGIN_RES LEU A  32
REMARK  2 active torsions:
REMARK  status: ('A' for Active; 'I' for Inactive)
REMARK   10  A    between atoms: CA   and  CB  
REMARK   11  A    between atoms: CB   and  CG  
ROOT
ATOM     22  CA  LEU A  32     -10.272  -4.106   1.587  1.00 16.16     0.177 C 
ENDROOT
BRANCH  22  23
ATOM     23  CB  LEU A  32     -11.613  -3.858   0.880  1.00 12.35     0.038 C 
BRANCH  23  24
ATOM     24  CG  LEU A  32     -12.577  -5.051   1.042  1.00  9.77    -0.020 C 
ATOM     25  CD1 LEU A  32     -13.019  -5.178   2.480  1.00  4.35     0.009 C 
ATOM     26  CD2 LEU A  32     -13.781  -4.893   0.152  1.00 10.60     0.009 C 
ENDBRANCH  23  24
ENDBRANCH  22  23
END_RES LEU A  32
BEGIN_RES HIS A  38
REMARK  2 active torsions:
REMARK  status: ('A' for Active; 'I' for Inactive)
REMARK   12  A    between atoms: CA   and  CB  
REMARK   13  A    between atoms: CB   and  CG  
ROOT
ATOM     27  CA  HIS A  38     -10.959   4.941   1.621  1.00 16.94     0.182 C 
ENDROOT
BRANCH  27  28
ATOM     28  CB  HIS A  38     -11.810   4.840   2.881  1.00 15.47     0.095 C 
BRANCH  28  29
ATOM     29  CG  HIS A  38     -13.001   3.949   2.735  1.00 18.62     0.053 A 
ATOM     30  CD2 HIS A  38     -14.165   4.124   2.066  1.00 15.06     0.116 A 
ATOM     31  NE2 HIS A  38     -14.902   2.980   2.236  1.00 18.12    -0.359 N 
ATOM     32  CE1 HIS A  38     -14.218   2.133   2.981  1.00 14.78     0.207 A 
ATOM     33  H06 HIS A  38     -15.821   2.813   1.852  1.00 18.12     0.166 HD
ATOM     34  ND1 HIS A  38     -13.068   2.693   3.298  1.00 16.58    -0.247 NA
ENDBRANCH  28  29
ENDBRANCH  27  28
END_RES HIS A  38
BEGIN_RES TRP A  63
REMARK  2 active torsions:
REMARK  status: ('A' for Active; 'I' for Inactive)
REMARK   14  A    between atoms: CA   and  CB  
REMARK   15  A    between atoms: CB   and  CG  
ROOT
ATOM     35  CA  TRP A  63     -22.437   6.257   6.543  1.00 27.04     0.181 C 
ENDROOT
BRANCH  35  36
ATOM     36  CB  TRP A  63     -22.360   6.642   5.068  1.00 31.37     0.075 C 
BRANCH  36  37
ATOM     37  CG  TRP A  63     -20.953   6.760   4.521  1.00 34.37    -0.028 A 
ATOM     38  CD2 TRP A  63     -19.891   5.803   4.645  1.00 33.79    -0.002 A 
ATOM     39  CE3 TRP A  63     -19.761   4.573   5.294  1.00 32.99     0.014 A 
ATOM     40  CE2 TRP A  63     -18.789   6.307   3.919  1.00 35.84     0.042 A 
ATOM     41  CZ3 TRP A  63     -18.555   3.894   5.201  1.00 32.93     0.001 A 
ATOM     42  CH2 TRP A  63     -17.477   4.422   4.472  1.00 39.24     0.002 A 
ATOM     43  CZ2 TRP A  63     -17.576   5.624   3.825  1.00 37.99     0.030 A 
ATOM     44  NE1 TRP A  63     -19.168   7.508   3.386  1.00 37.98    -0.365 N 
ATOM     45  H06 TRP A  63     -18.587   8.105   2.814  1.00 37.98     0.165 HD
ATOM     46  CD1 TRP A  63     -20.465   7.771   3.754  1.00 38.16     0.096 A 
ENDBRANCH  36  37
ENDBRANCH  35  36
END_RES TRP A  63
BEGIN_RES LEU A  66
REMARK  2 active torsions:
REMARK  status: ('A' for Active; 'I' for Inactive)
REMARK   16  A    between atoms: CA   and  CB  
REMARK   17  A    between atoms: CB   and  CG  
ROOT
ATOM     47  CA  LEU A  66     -20.004   6.489  11.120  1.00 10.90     0.177 C 
ENDROOT
BRANCH  47  48
ATOM     48  CB  LEU A  66     -19.626   5.453  10.069  1.00 13.57     0.038 C 
BRANCH  48  49
ATOM     49  CG  LEU A  66     -19.594   3.990  10.509  1.00  8.73    -0.020 C 
ATOM     50  CD1 LEU A  66     -18.826   3.154   9.518  1.00 14.23     0.009 C 
ATOM     51  CD2 LEU A  66     -18.941   3.913  11.865  1.00  1.92     0.009 C 
ENDBRANCH  48  49
ENDBRANCH  47  48
END_RES LEU A  66
BEGIN_RES PHE A  70
REMARK  2 active torsions:
REMARK  status: ('A' for Active; 'I' for Inactive)
REMARK   18  A    between atoms: CA   and  CB  
REMARK   19  A    between atoms: CB   and  CG  
ROOT
ATOM     52  CA  PHE A  70     -14.974   9.434  13.165  1.00  8.78     0.180 C 
ENDROOT
BRANCH  52  53
ATOM     53  CB  PHE A  70     -14.707   9.132  11.681  1.00  6.33     0.073 C 
BRANCH  53  54
ATOM     54  CG  PHE A  70     -13.934   7.861  11.459  1.00  3.42    -0.056 A 
ATOM     55  CD1 PHE A  70     -13.696   7.382  10.179  1.00 13.88     0.007 A 
ATOM     56  CE1 PHE A  70     -13.014   6.169   9.981  1.00 12.71     0.001 A 
ATOM     57  CZ  PHE A  70     -12.565   5.429  11.075  1.00  4.21     0.000 A 
ATOM     58  CE2 PHE A  70     -12.793   5.897  12.355  1.00  2.83     0.001 A 
ATOM     59  CD2 PHE A  70     -13.476   7.111  12.543  1.00  1.00     0.007 A 
ENDBRANCH  53  54
ENDBRANCH  52  53
END_RES PHE A  70
BEGIN_RES TYR A  73
REMARK  3 active torsions:
REMARK  status: ('A' for Active; 'I' for Inactive)
REMARK   20  A    between atoms: CA   and  CB  
REMARK   21  A    between atoms: CB   and  CG  
REMARK   22  A    between atoms: CZ   and  OH  
ROOT
ATOM     60  CA  TYR A  73     -13.212  10.166  17.260  1.00 12.17     0.180 C 
ENDROOT
BRANCH  60  61
ATOM     61  CB  TYR A  73     -13.301   8.846  16.517  1.00 12.84     0.073 C 
BRANCH  61  62
ATOM     62  CG  TYR A  73     -13.454   7.675  17.424  1.00 15.89    -0.056 A 
ATOM     63  CD1 TYR A  73     -13.432   7.828  18.792  1.00 16.00     0.010 A 
ATOM     64  CE1 TYR A  73     -13.544   6.729  19.643  1.00 13.55     0.037 A 
ATOM     65  CZ  TYR A  73     -13.679   5.466  19.103  1.00 18.13     0.065 A 
ATOM     66  CE2 TYR A  73     -13.705   5.286  17.740  1.00 15.89     0.037 A 
ATOM     67  CD2 TYR A  73     -13.593   6.392  16.907  1.00 21.86     0.010 A 
BRANCH  65  68
ATOM     68  OH  TYR A  73     -13.797   4.370  19.923  1.00 12.12    -0.361 OA
ATOM     69  H08 TYR A  73     -14.720   4.241  20.155  1.00 12.12     0.217 HD
ENDBRANCH  65  68
ENDBRANCH  61  62
ENDBRANCH  60  61
END_RES TYR A  73
BEGIN_RES PHE A  77
REMARK  2 active torsions:
REMARK  status: ('A' for Active; 'I' for Inactive)
REMARK   23  A    between atoms: CA   and  CB  
REMARK   24  A    between atoms: CB   and  CG  
ROOT
ATOM     70  CA  PHE A  77      -8.400  10.581  20.110  1.00 17.17     0.180 C 
ENDROOT
BRANCH  70  71
ATOM     71  CB  PHE A  77      -8.228   9.750  18.851  1.00 10.44     0.073 C 
BRANCH  71  72
ATOM     72  CG  PHE A  77      -8.872   8.401  18.926  1.00  6.07    -0.056 A 
ATOM     73  CD2 PHE A  77      -9.308   7.770  17.784  1.00  9.61     0.007 A 
ATOM     74  CE2 PHE A  77      -9.906   6.516  17.844  1.00  1.00     0.001 A 
ATOM     75  CZ  PHE A  77     -10.066   5.885  19.066  1.00  1.92     0.000 A 
ATOM     76  CE1 PHE A  77      -9.633   6.502  20.218  1.00  9.25     0.001 A 
ATOM     77  CD1 PHE A  77      -9.037   7.761  20.143  1.00  9.63     0.007 A 
ENDBRANCH  71  72
ENDBRANCH  70  71
END_RES PHE A  77
BEGIN_RES LEU A  96
REMARK  2 active torsions:
REMARK  status: ('A' for Active; 'I' for Inactive)
REMARK   25  A    between atoms: CA   and  CB  
REMARK   26  A    between atoms: CB   and  CG  
ROOT
ATOM     78  CA  LEU A  96       0.717   6.481  17.359  1.00 16.08     0.177 C 
ENDROOT
BRANCH  78  79
ATOM     79  CB  LEU A  96      -0.370   7.101  18.230  1.00 18.83     0.038 C 
BRANCH  79  80
ATOM     80  CG  LEU A  96      -0.170   6.903  19.732  1.00 19.03    -0.020 C 
ATOM     81  CD1 LEU A  96       0.420   5.532  19.969  1.00 28.17     0.009 C 
ATOM     82  CD2 LEU A  96       0.788   7.937  20.277  1.00 22.01     0.009 C 
ENDBRANCH  79  80
ENDBRANCH  78  79
END_RES LEU A  96
BEGIN_RES VAL A  98
REMARK  1 active torsions:
REMARK  status: ('A' for Active; 'I' for Inactive)
REMARK   27  A    between atoms: CA   and  CB  
ROOT
ATOM     83  CA  VAL A  98      -3.928   2.082  14.897  1.00 19.83     0.180 C 
ENDROOT
BRANCH  83  84
ATOM     84  CB  VAL A  98      -5.203   2.807  15.281  1.00 17.87     0.009 C 
ATOM     85  CG2 VAL A  98      -4.925   4.275  15.474  1.00 29.90     0.012 C 
ATOM     86  CG1 VAL A  98      -5.771   2.197  16.545  1.00 14.79     0.012 C 
ENDBRANCH  83  84
END_RES VAL A  98
BEGIN_RES ASN A 112
REMARK  2 active torsions:
REMARK  status: ('A' for Active; 'I' for Inactive)
REMARK   28  A    between atoms: CA   and  CB  
REMARK   29  A    between atoms: CB   and  CG  
REMARK       I    between atoms: CG   and  ND2 
ROOT
ATOM     87  CA  ASN A 112     -11.790  -8.793  14.069  1.00 37.70     0.185 C 
ENDROOT
BRANCH  87  88
ATOM     88  CB  ASN A 112     -12.992  -7.945  14.465  1.00 26.24     0.137 C 
BRANCH  88  89
ATOM     89  CG  ASN A 112     -13.809  -8.559  15.579  1.00 21.77     0.217 C 
ATOM     90  ND2 ASN A 112     -14.954  -9.139  15.219  1.00  9.31    -0.370 N 
ATOM     91  H04 ASN A 112     -15.546  -9.566  15.917  1.00  9.31     0.159 HD
ATOM     92  H05 ASN A 112     -15.229  -9.152  14.247  1.00  9.31     0.159 HD
ATOM     93  OD1 ASN A 112     -13.422  -8.510  16.753  1.00 21.61    -0.274 OA
ENDBRANCH  88  89
ENDBRANCH  87  88
END_RES ASN A 112
BEGIN_RES PHE A 114
REMARK  2 active torsions:
REMARK  status: ('A' for Active; 'I' for Inactive)
REMARK   30  A    between atoms: CA   and  CB  
REMARK   31  A    between atoms: CB   and  CG  
ROOT
ATOM     94  CA  PHE A 114      -7.754  -3.619  17.012  1.00 26.06     0.180 C 
ENDROOT
BRANCH  94  95
ATOM     95  CB  PHE A 114      -8.890  -3.080  17.867  1.00 19.95     0.073 C 
BRANCH  95  96
ATOM     96  CG  PHE A 114      -9.191  -1.639  17.611  1.00 17.65    -0.056 A 
ATOM     97  CD1 PHE A 114     -10.506  -1.194  17.501  1.00 13.01     0.007 A 
ATOM     98  CE1 PHE A 114     -10.786   0.139  17.234  1.00  6.74     0.001 A 
ATOM     99  CZ  PHE A 114      -9.747   1.052  17.077  1.00  6.27     0.000 A 
ATOM    100  CE2 PHE A 114      -8.435   0.622  17.185  1.00 17.36     0.001 A 
ATOM    101  CD2 PHE A 114      -8.160  -0.724  17.453  1.00 18.39     0.007 A 
ENDBRANCH  95  96
ENDBRANCH  94  95
END_RES PHE A 114
BEGIN_RES VAL A 116
REMARK  1 active torsions:
REMARK  status: ('A' for Active; 'I' for Inactive)
REMARK   32  A    between atoms: CA   and  CB  
ROOT
ATOM    102  CA  VAL A 116      -2.467   0.283  18.565  1.00 13.48     0.180 C 
ENDROOT
BRANCH 102 103
ATOM    103  CB  VAL A 116      -3.101   1.238  19.599  1.00 20.86     0.009 C 
ATOM    104  CG1 VAL A 116      -3.033   2.676  19.077  1.00 25.01     0.012 C 
ATOM    105  CG2 VAL A 116      -4.521   0.827  19.913  1.00 25.34     0.012 C 
ENDBRANCH 102 103
END_RES VAL A 116
BEGIN_RES ILE A 123
REMARK  2 active torsions:
REMARK  status: ('A' for Active; 'I' for Inactive)
REMARK   33  A    between atoms: CA   and  CB  
REMARK   34  A    between atoms: CB   and  CG1 
ROOT
ATOM    106  CA  ILE A 123       1.557  -1.626  23.222  1.00 15.07     0.180 C 
ENDROOT
BRANCH 106 107
ATOM    107  CB  ILE A 123       1.697  -0.112  23.461  1.00 14.41     0.013 C 
ATOM    108  CG2 ILE A 123       3.083   0.201  23.996  1.00 18.35     0.012 C 
BRANCH 107 109
ATOM    109  CG1 ILE A 123       1.446   0.655  22.165  1.00 15.23     0.002 C 
ATOM    110  CD1 ILE A 123       0.201   1.507  22.197  1.00 14.67     0.005 C 
ENDBRANCH 107 109
ENDBRANCH 106 107
END_RES ILE A 123
BEGIN_RES LEU A 124
REMARK  2 active torsions:
REMARK  status: ('A' for Active; 'I' for Inactive)
REMARK   35  A    between atoms: CA   and  CB  
REMARK   36  A    between atoms: CB   and  CG  
ROOT
ATOM    111  CA  LEU A 124      -2.057  -2.686  23.524  1.00 11.86     0.177 C 
ENDROOT
BRANCH 111 112
ATOM    112  CB  LEU A 124      -2.698  -1.652  24.429  1.00 14.60     0.038 C 
BRANCH 112 113
ATOM    113  CG  LEU A 124      -2.605  -0.249  23.849  1.00 16.19    -0.020 C 
ATOM    114  CD1 LEU A 124      -4.018   0.231  23.465  1.00 22.07     0.009 C 
ATOM    115  CD2 LEU A 124      -1.954   0.668  24.854  1.00  9.12     0.009 C 
ENDBRANCH 112 113
ENDBRANCH 111 112
END_RES LEU A 124
BEGIN_RES PHE A 126
REMARK  2 active torsions:
REMARK  status: ('A' for Active; 'I' for Inactive)
REMARK   37  A    between atoms: CA   and  CB  
REMARK   38  A    between atoms: CB   and  CG  
ROOT
ATOM    116  CA  PHE A 126      -8.784  -4.792  22.233  1.00 23.15     0.180 C 
ENDROOT
BRANCH 116 117
ATOM    117  CB  PHE A 126      -9.823  -4.011  21.461  1.00 20.65     0.073 C 
BRANCH 117 118
ATOM    118  CG  PHE A 126     -10.951  -3.545  22.296  1.00 23.65    -0.056 A 
ATOM    119  CD2 PHE A 126     -10.770  -2.540  23.229  1.00 36.63     0.007 A 
ATOM    120  CE2 PHE A 126     -11.841  -2.098  24.019  1.00 36.27     0.001 A 
ATOM    121  CZ  PHE A 126     -13.094  -2.672  23.868  1.00 18.06     0.000 A 
ATOM    122  CE1 PHE A 126     -13.279  -3.675  22.937  1.00  5.50     0.001 A 
ATOM    123  CD1 PHE A 126     -12.209  -4.106  22.153  1.00 15.29     0.007 A 
ENDBRANCH 117 118
ENDBRANCH 116 117
END_RES PHE A 126
BEGIN_RES TRP A 131
REMARK  2 active torsions:
REMARK  status: ('A' for Active; 'I' for Inactive)
REMARK   39  A    between atoms: CA   and  CB  
REMARK   40  A    between atoms: CB   and  CG  
ROOT
ATOM    124  CA  TRP A 131      -8.096  -3.335  26.542  1.00 14.52     0.181 C 
ENDROOT
BRANCH 124 125
ATOM    125  CB  TRP A 131      -7.651  -1.877  26.607  1.00 13.06     0.075 C 
BRANCH 125 126
ATOM    126  CG  TRP A 131      -8.051  -1.051  25.405  1.00 16.97    -0.028 A 
ATOM    127  CD2 TRP A 131      -9.134  -0.120  25.333  1.00 11.34    -0.002 A 
ATOM    128  CE2 TRP A 131      -9.139   0.425  24.034  1.00  5.87     0.042 A 
ATOM    129  CE3 TRP A 131     -10.104   0.306  26.248  1.00  3.80     0.014 A 
ATOM    130  CZ2 TRP A 131     -10.075   1.377  23.626  1.00  1.35     0.030 A 
ATOM    131  NE1 TRP A 131      -8.107  -0.150  23.344  1.00 13.90    -0.365 N 
ATOM    132  CH2 TRP A 131     -11.014   1.777  24.544  1.00  1.00     0.002 A 
ATOM    133  CZ3 TRP A 131     -11.035   1.247  25.848  1.00  1.00     0.001 A 
ATOM    134  CD1 TRP A 131      -7.457  -1.035  24.172  1.00 17.22     0.096 A 
ATOM    135  H07 TRP A 131      -7.862   0.044  22.384  1.00 13.90     0.165 HD
ENDBRANCH 125 126
ENDBRANCH 124 125
END_RES TRP A 131
BEGIN_RES LEU A 148
REMARK  2 active torsions:
REMARK  status: ('A' for Active; 'I' for Inactive)
REMARK   41  A    between atoms: CA   and  CB  
REMARK   42  A    between atoms: CB   and  CG  
ROOT
ATOM    136  CA  LEU A 148      -9.018   3.259  29.295  1.00 16.99     0.177 C 
ENDROOT
BRANCH 136 137
ATOM    137  CB  LEU A 148      -8.166   2.574  28.236  1.00  6.39     0.038 C 
BRANCH 137 138
ATOM    138  CG  LEU A 148      -7.990   3.183  26.860  1.00  1.00    -0.020 C 
ATOM    139  CD2 LEU A 148      -6.576   3.652  26.675  1.00  1.00     0.009 C 
ATOM    140  CD1 LEU A 148      -8.959   4.343  26.725  1.00  2.71     0.009 C 
ENDBRANCH 137 138
ENDBRANCH 136 137
END_RES LEU A 148
BEGIN_RES THR A 154
REMARK  2 active torsions:
REMARK  status: ('A' for Active; 'I' for Inactive)
REMARK   43  A    between atoms: CA   and  CB  
REMARK   44  A    between atoms: CB   and  OG1 
ROOT
ATOM    141  CA  THR A 154     -15.990   3.959  24.426  1.00 20.45     0.205 C 
ENDROOT
BRANCH 141 142
ATOM    142  CB  THR A 154     -14.777   4.829  24.694  1.00 16.79     0.146 C 
ATOM    143  CG2 THR A 154     -13.682   4.524  23.690  1.00 20.24     0.042 C 
BRANCH 142 144
ATOM    144  OG1 THR A 154     -15.155   6.205  24.564  1.00 18.84    -0.393 OA
ATOM    145  H06 THR A 154     -16.059   6.261  24.246  1.00 18.84     0.210 HD
ENDBRANCH 142 144
ENDBRANCH 141 142
END_RES THR A 154
BEGIN_RES VAL A 158
REMARK  1 active torsions:
REMARK  status: ('A' for Active; 'I' for Inactive)
REMARK   45  A    between atoms: CA   and  CB  
ROOT
ATOM    146  CA  VAL A 158     -15.487  -0.189  19.892  1.00 15.49     0.180 C 
ENDROOT
BRANCH 146 147
ATOM    147  CB  VAL A 158     -14.291  -0.273  20.822  1.00  6.52     0.009 C 
ATOM    148  CG1 VAL A 158     -13.247  -1.218  20.274  1.00  1.00     0.012 C 
ATOM    149  CG2 VAL A 158     -13.721   1.101  20.997  1.00  5.99     0.012 C 
ENDBRANCH 146 147
END_RES VAL A 158
BEGIN_RES LEU A 161
REMARK  2 active torsions:
REMARK  status: ('A' for Active; 'I' for Inactive)
REMARK   46  A    between atoms: CA   and  CB  
REMARK   47  A    between atoms: CB   and  CG  
ROOT
ATOM    150  CA  LEU A 161     -18.031  -1.858  15.935  1.00 13.31     0.177 C 
ENDROOT
BRANCH 150 151
ATOM    151  CB  LEU A 161     -17.046  -0.706  16.001  1.00 14.13     0.038 C 
BRANCH 151 152
ATOM    152  CG  LEU A 161     -17.347   0.491  15.108  1.00 19.39    -0.020 C 
ATOM    153  CD2 LEU A 161     -16.469   1.659  15.486  1.00 27.75     0.009 C 
ATOM    154  CD1 LEU A 161     -18.796   0.863  15.264  1.00 18.59     0.009 C 
ENDBRANCH 151 152
ENDBRANCH 150 151
END_RES LEU A 161
BEGIN_RES GLN A 168
REMARK  3 active torsions:
REMARK  status: ('A' for Active; 'I' for Inactive)
REMARK   48  A    between atoms: CA   and  CB  
REMARK   49  A    between atoms: CB   and  CG  
REMARK   50  A    between atoms: CG   and  CD  
REMARK       I    between atoms: CD   and  NE2 
ROOT
ATOM    155  CA  GLN A 168     -22.035  -6.020   8.155  1.00 30.94     0.177 C 
ENDROOT
BRANCH 155 156
ATOM    156  CB  GLN A 168     -23.054  -5.218   8.946  1.00 41.76     0.044 C 
BRANCH 156 157
ATOM    157  CG  GLN A 168     -24.458  -5.756   8.882  1.00 61.20     0.105 C 
BRANCH 157 158
ATOM    158  CD  GLN A 168     -25.129  -5.430   7.562  1.00 75.49     0.215 C 
ATOM    159  NE2 GLN A 168     -25.075  -4.155   7.172  1.00 85.00    -0.370 N 
ATOM    160  H06 GLN A 168     -25.506  -3.874   6.302  1.00 85.00     0.159 HD
ATOM    161  H07 GLN A 168     -24.603  -3.471   7.747  1.00 85.00     0.159 HD
ATOM    162  OE1 GLN A 168     -25.696  -6.310   6.899  1.00 73.64    -0.274 OA
ENDBRANCH 157 158
ENDBRANCH 156 157
ENDBRANCH 155 156
END_RES GLN A 168
ENDMDL
MODEL 7
REMARK VINA RESULT:      -7.0      1.209      2.701
REMARK  Name = human_CD1d_ODG_pred.rank_0
REMARK  9 active torsions:
REMARK  status: ('A' for Active; 'I' for Inactive)
REMARK    1  A    between atoms: C_7  and  O_8
REMARK    2  A    between atoms: O_8  and  C_9
REMARK    3  A    between atoms: C_9  and  C_11
REMARK    4  A    between atoms: C_11  and  C_13
REMARK    5  A    between atoms: C_13  and  C_14
REMARK    6  A    between atoms: C_14  and  C_15
REMARK    7  A    between atoms: C_15  and  C_16
REMARK    8  A    between atoms: C_16  and  C_17
REMARK    9  A    between atoms: C_19  and  C_20
REMARK                            x       y       z     vdW  Elec       q    Type
REMARK                         _______ _______ _______ _____ _____    ______ ____
ROOT
ATOM      1  C   UNL     1     -15.007   0.046  10.916  0.00  0.00    +0.000 C 
ATOM      2  O   UNL     1     -15.916  -0.927  10.410  0.00  0.00    +0.000 OA
ATOM      3  C   UNL     1     -15.694   1.401  11.016  0.00  0.00    +0.000 C 
ATOM      4  O   UNL     1     -16.038   1.852   9.740  0.00  0.00    +0.000 OA
ATOM      5  C   UNL     1     -14.759   2.404  11.676  0.00  0.00    +0.000 C 
ATOM      6  O   UNL     1     -15.483   3.636  11.872  0.00  0.00    +0.000 OA
ATOM      7  C   UNL     1     -14.352   1.872  13.065  0.00  0.00    +0.000 C 
ATOM      8  O   UNL     1     -13.638   0.609  12.926  0.00  0.00    +0.000 OA
ATOM      9  C   UNL     1     -14.528  -0.396  12.303  0.00  0.00    +0.000 C 
ENDROOT
BRANCH   9  11
ATOM     10  O   UNL     1     -12.347  -1.316  12.167  0.00  0.00    +0.000 OA
ATOM     11  C   UNL     1     -13.726  -1.690  12.206  0.00  0.00    +0.000 C 
ENDBRANCH   9  11
BRANCH   7  12
ATOM     12  O   UNL     1     -13.431   2.799  13.627  0.00  0.00    +0.000 OA
BRANCH  12  13
ATOM     13  C   UNL     1     -12.736   2.262  14.750  0.00  0.00    +0.000 C 
BRANCH  13  14
ATOM     14  C   UNL     1     -12.810   3.360  15.843  0.00  0.00    +0.000 C 
BRANCH  14  15
ATOM     15  C   UNL     1     -11.424   3.977  16.032  0.00  0.00    +0.000 C 
BRANCH  15  16
ATOM     16  C   UNL     1     -11.367   5.314  15.264  0.00  0.00    +0.000 C 
BRANCH  16  17
ATOM     17  C   UNL     1      -9.976   5.503  14.750  0.00  0.00    +0.000 C 
BRANCH  17  18
ATOM     18  C   UNL     1      -9.625   6.995  14.831  0.00  0.00    +0.000 C 
BRANCH  18  19
ATOM     19  C   UNL     1      -8.924   7.238  16.136  0.00  0.00    +0.000 C 
ATOM     20  C   UNL     1      -7.998   6.068  16.432  0.00  0.00    +0.000 C 
ENDBRANCH  18  19
ENDBRANCH  17  18
ENDBRANCH  16  17
ENDBRANCH  15  16
ENDBRANCH  14  15
ENDBRANCH  13  14
ENDBRANCH  12  13
ENDBRANCH   7  12
TORSDOF 9
BEGIN_RES LEU A  10
REMARK  2 active torsions:
REMARK  status: ('A' for Active; 'I' for Inactive)
REMARK    1  A    between atoms: CA   and  CB  
REMARK    2  A    between atoms: CB   and  CG  
ROOT
ATOM      1  CA  LEU A  10     -10.775  -4.871   5.898  1.00 25.14     0.177 C 
ENDROOT
BRANCH   1   2
ATOM      2  CB  LEU A  10     -12.191  -4.387   6.226  1.00 17.87     0.038 C 
BRANCH   2   3
ATOM      3  CG  LEU A  10     -12.392  -2.877   6.085  1.00 24.95    -0.020 C 
ATOM      4  CD2 LEU A  10     -13.672  -2.492   6.746  1.00 26.38     0.009 C 
ATOM      5  CD1 LEU A  10     -12.401  -2.464   4.623  1.00 28.12     0.009 C 
ENDBRANCH   2   3
ENDBRANCH   1   2
END_RES LEU A  10
BEGIN_RES CYS A  12
REMARK  2 active torsions:
REMARK  status: ('A' for Active; 'I' for Inactive)
REMARK    3  A    between atoms: CA   and  CB  
REMARK    4  A    between atoms: CB   and  SG  
ROOT
ATOM      6  CA  CYS A  12      -8.555   0.470   8.750  1.00 23.16     0.185 C 
ENDROOT
BRANCH   6   7
ATOM      7  CB  CYS A  12      -9.828   0.763   9.555  1.00 20.43     0.105 C 
BRANCH   7   8
ATOM      8  SG  CYS A  12     -11.313   1.168   8.585  1.00 24.64    -0.180 SA
ATOM      9  H04 CYS A  12     -12.274   0.272   8.843  1.00 24.64     0.101 HD
ENDBRANCH   7   8
ENDBRANCH   6   7
END_RES CYS A  12
BEGIN_RES GLN A  14
REMARK  3 active torsions:
REMARK  status: ('A' for Active; 'I' for Inactive)
REMARK    5  A    between atoms: CA   and  CB  
REMARK    6  A    between atoms: CB   and  CG  
REMARK    7  A    between atoms: CG   and  CD  
REMARK       I    between atoms: CD   and  NE2 
ROOT
ATOM     10  CA  GLN A  14      -4.645   5.402  11.377  1.00 10.43     0.177 C 
ENDROOT
BRANCH  10  11
ATOM     11  CB  GLN A  14      -5.541   5.549  12.608  1.00 14.45     0.044 C 
BRANCH  11  12
ATOM     12  CG  GLN A  14      -6.517   6.700  12.527  1.00 13.74     0.105 C 
BRANCH  12  13
ATOM     13  CD  GLN A  14      -5.967   7.967  13.138  1.00 16.29     0.215 C 
ATOM     14  NE2 GLN A  14      -5.377   8.806  12.315  1.00  8.57    -0.370 N 
ATOM     15  H06 GLN A  14      -4.991   9.671  12.667  1.00  8.57     0.159 HD
ATOM     16  H07 GLN A  14      -5.309   8.587  11.332  1.00  8.57     0.159 HD
ATOM     17  OE1 GLN A  14      -6.075   8.188  14.334  1.00 23.55    -0.274 OA
ENDBRANCH  12  13
ENDBRANCH  11  12
ENDBRANCH  10  11
END_RES GLN A  14
BEGIN_RES SER A  16
REMARK  2 active torsions:
REMARK  status: ('A' for Active; 'I' for Inactive)
REMARK    8  A    between atoms: CA   and  CB  
REMARK    9  A    between atoms: CB   and  OG  
ROOT
ATOM     18  CA  SER A  16      -1.305  10.019  14.282  1.00  2.34     0.200 C 
ENDROOT
BRANCH  18  19
ATOM     19  CB  SER A  16      -2.242   9.935  15.479  1.00  3.12     0.199 C 
BRANCH  19  20
ATOM     20  OG  SER A  16      -3.487   9.381  15.092  1.00  1.00    -0.398 OA
ATOM     21  H04 SER A  16      -4.148  10.075  15.053  1.00  1.00     0.209 HD
ENDBRANCH  19  20
ENDBRANCH  18  19
END_RES SER A  16
BEGIN_RES LEU A  32
REMARK  2 active torsions:
REMARK  status: ('A' for Active; 'I' for Inactive)
REMARK   10  A    between atoms: CA   and  CB  
REMARK   11  A    between atoms: CB   and  CG  
ROOT
ATOM     22  CA  LEU A  32     -10.272  -4.106   1.587  1.00 16.16     0.177 C 
ENDROOT
BRANCH  22  23
ATOM     23  CB  LEU A  32     -11.613  -3.858   0.880  1.00 12.35     0.038 C 
BRANCH  23  24
ATOM     24  CG  LEU A  32     -12.569  -5.060   1.024  1.00  9.77    -0.020 C 
ATOM     25  CD1 LEU A  32     -13.036  -5.190   2.455  1.00  4.35     0.009 C 
ATOM     26  CD2 LEU A  32     -13.759  -4.912   0.112  1.00 10.60     0.009 C 
ENDBRANCH  23  24
ENDBRANCH  22  23
END_RES LEU A  32
BEGIN_RES HIS A  38
REMARK  2 active torsions:
REMARK  status: ('A' for Active; 'I' for Inactive)
REMARK   12  A    between atoms: CA   and  CB  
REMARK   13  A    between atoms: CB   and  CG  
ROOT
ATOM     27  CA  HIS A  38     -10.959   4.941   1.621  1.00 16.94     0.182 C 
ENDROOT
BRANCH  27  28
ATOM     28  CB  HIS A  38     -11.810   4.840   2.881  1.00 15.47     0.095 C 
BRANCH  28  29
ATOM     29  CG  HIS A  38     -13.009   3.961   2.731  1.00 18.62     0.053 A 
ATOM     30  CD2 HIS A  38     -14.173   4.151   2.065  1.00 15.06     0.116 A 
ATOM     31  NE2 HIS A  38     -14.920   3.013   2.227  1.00 18.12    -0.359 N 
ATOM     32  CE1 HIS A  38     -14.243   2.155   2.965  1.00 14.78     0.207 A 
ATOM     33  H06 HIS A  38     -15.841   2.857   1.843  1.00 18.12     0.166 HD
ATOM     34  ND1 HIS A  38     -13.086   2.701   3.284  1.00 16.58    -0.247 NA
ENDBRANCH  28  29
ENDBRANCH  27  28
END_RES HIS A  38
BEGIN_RES TRP A  63
REMARK  2 active torsions:
REMARK  status: ('A' for Active; 'I' for Inactive)
REMARK   14  A    between atoms: CA   and  CB  
REMARK   15  A    between atoms: CB   and  CG  
ROOT
ATOM     35  CA  TRP A  63     -22.437   6.257   6.543  1.00 27.04     0.181 C 
ENDROOT
BRANCH  35  36
ATOM     36  CB  TRP A  63     -22.360   6.642   5.068  1.00 31.37     0.075 C 
BRANCH  36  37
ATOM     37  CG  TRP A  63     -20.953   6.744   4.517  1.00 34.37    -0.028 A 
ATOM     38  CD2 TRP A  63     -19.897   5.783   4.652  1.00 33.79    -0.002 A 
ATOM     39  CE3 TRP A  63     -19.773   4.561   5.317  1.00 32.99     0.014 A 
ATOM     40  CE2 TRP A  63     -18.794   6.270   3.917  1.00 35.84     0.042 A 
ATOM     41  CZ3 TRP A  63     -18.571   3.873   5.231  1.00 32.93     0.001 A 
ATOM     42  CH2 TRP A  63     -17.492   4.385   4.493  1.00 39.24     0.002 A 
ATOM     43  CZ2 TRP A  63     -17.584   5.579   3.830  1.00 37.99     0.030 A 
ATOM     44  NE1 TRP A  63     -19.166   7.466   3.368  1.00 37.98    -0.365 N 
ATOM     45  H06 TRP A  63     -18.583   8.052   2.787  1.00 37.98     0.165 HD
ATOM     46  CD1 TRP A  63     -20.461   7.741   3.735  1.00 38.16     0.096 A 
ENDBRANCH  36  37
ENDBRANCH  35  36
END_RES TRP A  63
BEGIN_RES LEU A  66
REMARK  2 active torsions:
REMARK  status: ('A' for Active; 'I' for Inactive)
REMARK   16  A    between atoms: CA   and  CB  
REMARK   17  A    between atoms: CB   and  CG  
ROOT
ATOM     47  CA  LEU A  66     -20.004   6.489  11.120  1.00 10.90     0.177 C 
ENDROOT
BRANCH  47  48
ATOM     48  CB  LEU A  66     -19.626   5.453  10.069  1.00 13.57     0.038 C 
BRANCH  48  49
ATOM     49  CG  LEU A  66     -19.856   3.984  10.420  1.00  8.73    -0.020 C 
ATOM     50  CD1 LEU A  66     -19.507   3.097   9.253  1.00 14.23     0.009 C 
ATOM     51  CD2 LEU A  66     -18.997   3.636  11.609  1.00  1.92     0.009 C 
ENDBRANCH  48  49
ENDBRANCH  47  48
END_RES LEU A  66
BEGIN_RES PHE A  70
REMARK  2 active torsions:
REMARK  status: ('A' for Active; 'I' for Inactive)
REMARK   18  A    between atoms: CA   and  CB  
REMARK   19  A    between atoms: CB   and  CG  
ROOT
ATOM     52  CA  PHE A  70     -14.974   9.434  13.165  1.00  8.78     0.180 C 
ENDROOT
BRANCH  52  53
ATOM     53  CB  PHE A  70     -14.707   9.132  11.681  1.00  6.33     0.073 C 
BRANCH  53  54
ATOM     54  CG  PHE A  70     -13.933   7.861  11.459  1.00  3.42    -0.056 A 
ATOM     55  CD1 PHE A  70     -13.694   7.383  10.179  1.00 13.88     0.007 A 
ATOM     56  CE1 PHE A  70     -13.011   6.170   9.981  1.00 12.71     0.001 A 
ATOM     57  CZ  PHE A  70     -12.562   5.430  11.075  1.00  4.21     0.000 A 
ATOM     58  CE2 PHE A  70     -12.791   5.898  12.355  1.00  2.83     0.001 A 
ATOM     59  CD2 PHE A  70     -13.475   7.111  12.543  1.00  1.00     0.007 A 
ENDBRANCH  53  54
ENDBRANCH  52  53
END_RES PHE A  70
BEGIN_RES TYR A  73
REMARK  3 active torsions:
REMARK  status: ('A' for Active; 'I' for Inactive)
REMARK   20  A    between atoms: CA   and  CB  
REMARK   21  A    between atoms: CB   and  CG  
REMARK   22  A    between atoms: CZ   and  OH  
ROOT
ATOM     60  CA  TYR A  73     -13.212  10.166  17.260  1.00 12.17     0.180 C 
ENDROOT
BRANCH  60  61
ATOM     61  CB  TYR A  73     -13.301   8.846  16.517  1.00 12.84     0.073 C 
BRANCH  61  62
ATOM     62  CG  TYR A  73     -13.198   7.663  17.415  1.00 15.89    -0.056 A 
ATOM     63  CD1 TYR A  73     -12.048   7.411  18.130  1.00 16.00     0.010 A 
ATOM     64  CE1 TYR A  73     -11.938   6.287  18.947  1.00 13.55     0.037 A 
ATOM     65  CZ  TYR A  73     -13.001   5.411  19.040  1.00 18.13     0.065 A 
ATOM     66  CE2 TYR A  73     -14.161   5.640  18.338  1.00 15.89     0.037 A 
ATOM     67  CD2 TYR A  73     -14.254   6.766  17.529  1.00 21.86     0.010 A 
BRANCH  65  68
ATOM     68  OH  TYR A  73     -12.916   4.301  19.844  1.00 12.12    -0.361 OA
ATOM     69  H08 TYR A  73     -12.802   4.574  20.758  1.00 12.12     0.217 HD
ENDBRANCH  65  68
ENDBRANCH  61  62
ENDBRANCH  60  61
END_RES TYR A  73
BEGIN_RES PHE A  77
REMARK  2 active torsions:
REMARK  status: ('A' for Active; 'I' for Inactive)
REMARK   23  A    between atoms: CA   and  CB  
REMARK   24  A    between atoms: CB   and  CG  
ROOT
ATOM     70  CA  PHE A  77      -8.400  10.581  20.110  1.00 17.17     0.180 C 
ENDROOT
BRANCH  70  71
ATOM     71  CB  PHE A  77      -8.228   9.750  18.851  1.00 10.44     0.073 C 
BRANCH  71  72
ATOM     72  CG  PHE A  77      -7.131   8.736  18.943  1.00  6.07    -0.056 A 
ATOM     73  CD2 PHE A  77      -6.040   8.808  18.108  1.00  9.61     0.007 A 
ATOM     74  CE2 PHE A  77      -5.016   7.872  18.188  1.00  1.00     0.001 A 
ATOM     75  CZ  PHE A  77      -5.085   6.850  19.119  1.00  1.92     0.000 A 
ATOM     76  CE1 PHE A  77      -6.169   6.764  19.963  1.00  9.25     0.001 A 
ATOM     77  CD1 PHE A  77      -7.190   7.709  19.871  1.00  9.63     0.007 A 
ENDBRANCH  71  72
ENDBRANCH  70  71
END_RES PHE A  77
BEGIN_RES LEU A  96
REMARK  2 active torsions:
REMARK  status: ('A' for Active; 'I' for Inactive)
REMARK   25  A    between atoms: CA   and  CB  
REMARK   26  A    between atoms: CB   and  CG  
ROOT
ATOM     78  CA  LEU A  96       0.717   6.481  17.359  1.00 16.08     0.177 C 
ENDROOT
BRANCH  78  79
ATOM     79  CB  LEU A  96      -0.370   7.101  18.230  1.00 18.83     0.038 C 
BRANCH  79  80
ATOM     80  CG  LEU A  96      -0.169   6.904  19.732  1.00 19.03    -0.020 C 
ATOM     81  CD1 LEU A  96       0.553   8.109  20.290  1.00 28.17     0.009 C 
ATOM     82  CD2 LEU A  96      -1.503   6.780  20.431  1.00 22.01     0.009 C 
ENDBRANCH  79  80
ENDBRANCH  78  79
END_RES LEU A  96
BEGIN_RES VAL A  98
REMARK  1 active torsions:
REMARK  status: ('A' for Active; 'I' for Inactive)
REMARK   27  A    between atoms: CA   and  CB  
ROOT
ATOM     83  CA  VAL A  98      -3.928   2.082  14.897  1.00 19.83     0.180 C 
ENDROOT
BRANCH  83  84
ATOM     84  CB  VAL A  98      -5.203   2.807  15.281  1.00 17.87     0.009 C 
ATOM     85  CG2 VAL A  98      -4.916   4.267  15.519  1.00 29.90     0.012 C 
ATOM     86  CG1 VAL A  98      -5.796   2.167  16.519  1.00 14.79     0.012 C 
ENDBRANCH  83  84
END_RES VAL A  98
BEGIN_RES ASN A 112
REMARK  2 active torsions:
REMARK  status: ('A' for Active; 'I' for Inactive)
REMARK   28  A    between atoms: CA   and  CB  
REMARK   29  A    between atoms: CB   and  CG  
REMARK       I    between atoms: CG   and  ND2 
ROOT
ATOM     87  CA  ASN A 112     -11.790  -8.793  14.069  1.00 37.70     0.185 C 
ENDROOT
BRANCH  87  88
ATOM     88  CB  ASN A 112     -12.992  -7.945  14.465  1.00 26.24     0.137 C 
BRANCH  88  89
ATOM     89  CG  ASN A 112     -13.813  -8.563  15.574  1.00 21.77     0.217 C 
ATOM     90  ND2 ASN A 112     -14.960  -9.135  15.209  1.00  9.31    -0.370 N 
ATOM     91  H04 ASN A 112     -15.555  -9.563  15.904  1.00  9.31     0.159 HD
ATOM     92  H05 ASN A 112     -15.234  -9.139  14.236  1.00  9.31     0.159 HD
ATOM     93  OD1 ASN A 112     -13.427  -8.524  16.749  1.00 21.61    -0.274 OA
ENDBRANCH  88  89
ENDBRANCH  87  88
END_RES ASN A 112
BEGIN_RES PHE A 114
REMARK  2 active torsions:
REMARK  status: ('A' for Active; 'I' for Inactive)
REMARK   30  A    between atoms: CA   and  CB  
REMARK   31  A    between atoms: CB   and  CG  
ROOT
ATOM     94  CA  PHE A 114      -7.754  -3.619  17.012  1.00 26.06     0.180 C 
ENDROOT
BRANCH  94  95
ATOM     95  CB  PHE A 114      -8.890  -3.080  17.867  1.00 19.95     0.073 C 
BRANCH  95  96
ATOM     96  CG  PHE A 114      -9.216  -1.649  17.585  1.00 17.65    -0.056 A 
ATOM     97  CD1 PHE A 114      -8.206  -0.698  17.468  1.00 13.01     0.007 A 
ATOM     98  CE1 PHE A 114      -8.510   0.637  17.235  1.00  6.74     0.001 A 
ATOM     99  CZ  PHE A 114      -9.836   1.040  17.113  1.00  6.27     0.000 A 
ATOM    100  CE2 PHE A 114     -10.850   0.102  17.226  1.00 17.36     0.001 A 
ATOM    101  CD2 PHE A 114     -10.537  -1.241  17.462  1.00 18.39     0.007 A 
ENDBRANCH  95  96
ENDBRANCH  94  95
END_RES PHE A 114
BEGIN_RES VAL A 116
REMARK  1 active torsions:
REMARK  status: ('A' for Active; 'I' for Inactive)
REMARK   32  A    between atoms: CA   and  CB  
ROOT
ATOM    102  CA  VAL A 116      -2.467   0.283  18.565  1.00 13.48     0.180 C 
ENDROOT
BRANCH 102 103
ATOM    103  CB  VAL A 116      -3.101   1.238  19.599  1.00 20.86     0.009 C 
ATOM    104  CG1 VAL A 116      -3.056   2.673  19.066  1.00 25.01     0.012 C 
ATOM    105  CG2 VAL A 116      -4.512   0.812  19.931  1.00 25.34     0.012 C 
ENDBRANCH 102 103
END_RES VAL A 116
BEGIN_RES ILE A 123
REMARK  2 active torsions:
REMARK  status: ('A' for Active; 'I' for Inactive)
REMARK   33  A    between atoms: CA   and  CB  
REMARK   34  A    between atoms: CB   and  CG1 
ROOT
ATOM    106  CA  ILE A 123       1.557  -1.626  23.222  1.00 15.07     0.180 C 
ENDROOT
BRANCH 106 107
ATOM    107  CB  ILE A 123       1.697  -0.112  23.461  1.00 14.41     0.013 C 
ATOM    108  CG2 ILE A 123       3.094   0.205  23.965  1.00 18.35     0.012 C 
BRANCH 107 109
ATOM    109  CG1 ILE A 123       1.414   0.656  22.173  1.00 15.23     0.002 C 
ATOM    110  CD1 ILE A 123       0.217   1.573  22.264  1.00 14.67     0.005 C 
ENDBRANCH 107 109
ENDBRANCH 106 107
END_RES ILE A 123
BEGIN_RES LEU A 124
REMARK  2 active torsions:
REMARK  status: ('A' for Active; 'I' for Inactive)
REMARK   35  A    between atoms: CA   and  CB  
REMARK   36  A    between atoms: CB   and  CG  
ROOT
ATOM    111  CA  LEU A 124      -2.057  -2.686  23.524  1.00 11.86     0.177 C 
ENDROOT
BRANCH 111 112
ATOM    112  CB  LEU A 124      -2.698  -1.652  24.429  1.00 14.60     0.038 C 
BRANCH 112 113
ATOM    113  CG  LEU A 124      -2.631  -0.253  23.835  1.00 16.19    -0.020 C 
ATOM    114  CD1 LEU A 124      -4.055   0.203  23.464  1.00 22.07     0.009 C 
ATOM    115  CD2 LEU A 124      -1.981   0.682  24.824  1.00  9.12     0.009 C 
ENDBRANCH 112 113
ENDBRANCH 111 112
END_RES LEU A 124
BEGIN_RES PHE A 126
REMARK  2 active torsions:
REMARK  status: ('A' for Active; 'I' for Inactive)
REMARK   37  A    between atoms: CA   and  CB  
REMARK   38  A    between atoms: CB   and  CG  
ROOT
ATOM    116  CA  PHE A 126      -8.784  -4.792  22.233  1.00 23.15     0.180 C 
ENDROOT
BRANCH 116 117
ATOM    117  CB  PHE A 126      -9.823  -4.011  21.461  1.00 20.65     0.073 C 
BRANCH 117 118
ATOM    118  CG  PHE A 126     -10.952  -3.547  22.296  1.00 23.65    -0.056 A 
ATOM    119  CD2 PHE A 126     -10.772  -2.544  23.232  1.00 36.63     0.007 A 
ATOM    120  CE2 PHE A 126     -11.844  -2.105  24.021  1.00 36.27     0.001 A 
ATOM    121  CZ  PHE A 126     -13.097  -2.678  23.867  1.00 18.06     0.000 A 
ATOM    122  CE1 PHE A 126     -13.281  -3.677  22.932  1.00  5.50     0.001 A 
ATOM    123  CD1 PHE A 126     -12.210  -4.107  22.149  1.00 15.29     0.007 A 
ENDBRANCH 117 118
ENDBRANCH 116 117
END_RES PHE A 126
BEGIN_RES TRP A 131
REMARK  2 active torsions:
REMARK  status: ('A' for Active; 'I' for Inactive)
REMARK   39  A    between atoms: CA   and  CB  
REMARK   40  A    between atoms: CB   and  CG  
ROOT
ATOM    124  CA  TRP A 131      -8.096  -3.335  26.542  1.00 14.52     0.181 C 
ENDROOT
BRANCH 124 125
ATOM    125  CB  TRP A 131      -7.651  -1.877  26.607  1.00 13.06     0.075 C 
BRANCH 125 126
ATOM    126  CG  TRP A 131      -8.053  -1.050  25.406  1.00 16.97    -0.028 A 
ATOM    127  CD2 TRP A 131      -9.134  -0.116  25.338  1.00 11.34    -0.002 A 
ATOM    128  CE2 TRP A 131      -9.142   0.428  24.038  1.00  5.87     0.042 A 
ATOM    129  CE3 TRP A 131     -10.099   0.312  26.256  1.00  3.80     0.014 A 
ATOM    130  CZ2 TRP A 131     -10.077   1.382  23.634  1.00  1.35     0.030 A 
ATOM    131  NE1 TRP A 131      -8.114  -0.150  23.345  1.00 13.90    -0.365 N 
ATOM    132  CH2 TRP A 131     -11.012   1.785  24.555  1.00  1.00     0.002 A 
ATOM    133  CZ3 TRP A 131     -11.030   1.256  25.859  1.00  1.00     0.001 A 
ATOM    134  CD1 TRP A 131      -7.464  -1.036  24.171  1.00 17.22     0.096 A 
ATOM    135  H07 TRP A 131      -7.872   0.043  22.384  1.00 13.90     0.165 HD
ENDBRANCH 125 126
ENDBRANCH 124 125
END_RES TRP A 131
BEGIN_RES LEU A 148
REMARK  2 active torsions:
REMARK  status: ('A' for Active; 'I' for Inactive)
REMARK   41  A    between atoms: CA   and  CB  
REMARK   42  A    between atoms: CB   and  CG  
ROOT
ATOM    136  CA  LEU A 148      -9.018   3.259  29.295  1.00 16.99     0.177 C 
ENDROOT
BRANCH 136 137
ATOM    137  CB  LEU A 148      -8.166   2.574  28.236  1.00  6.39     0.038 C 
BRANCH 137 138
ATOM    138  CG  LEU A 148      -7.538   3.364  27.106  1.00  1.00    -0.020 C 
ATOM    139  CD2 LEU A 148      -8.602   4.040  26.290  1.00  1.00     0.009 C 
ATOM    140  CD1 LEU A 148      -6.734   2.406  26.246  1.00  2.71     0.009 C 
ENDBRANCH 137 138
ENDBRANCH 136 137
END_RES LEU A 148
BEGIN_RES THR A 154
REMARK  2 active torsions:
REMARK  status: ('A' for Active; 'I' for Inactive)
REMARK   43  A    between atoms: CA   and  CB  
REMARK   44  A    between atoms: CB   and  OG1 
ROOT
ATOM    141  CA  THR A 154     -15.990   3.959  24.426  1.00 20.45     0.205 C 
ENDROOT
BRANCH 141 142
ATOM    142  CB  THR A 154     -14.777   4.829  24.694  1.00 16.79     0.146 C 
ATOM    143  CG2 THR A 154     -13.677   4.516  23.697  1.00 20.24     0.042 C 
BRANCH 142 144
ATOM    144  OG1 THR A 154     -15.152   6.205  24.552  1.00 18.84    -0.393 OA
ATOM    145  H06 THR A 154     -15.358   6.572  25.415  1.00 18.84     0.210 HD
ENDBRANCH 142 144
ENDBRANCH 141 142
END_RES THR A 154
BEGIN_RES VAL A 158
REMARK  1 active torsions:
REMARK  status: ('A' for Active; 'I' for Inactive)
REMARK   45  A    between atoms: CA   and  CB  
ROOT
ATOM    146  CA  VAL A 158     -15.487  -0.189  19.892  1.00 15.49     0.180 C 
ENDROOT
BRANCH 146 147
ATOM    147  CB  VAL A 158     -14.291  -0.273  20.822  1.00  6.52     0.009 C 
ATOM    148  CG1 VAL A 158     -13.238  -1.202  20.263  1.00  1.00     0.012 C 
ATOM    149  CG2 VAL A 158     -13.734   1.104  21.014  1.00  5.99     0.012 C 
ENDBRANCH 146 147
END_RES VAL A 158
BEGIN_RES LEU A 161
REMARK  2 active torsions:
REMARK  status: ('A' for Active; 'I' for Inactive)
REMARK   46  A    between atoms: CA   and  CB  
REMARK   47  A    between atoms: CB   and  CG  
ROOT
ATOM    150  CA  LEU A 161     -18.031  -1.858  15.935  1.00 13.31     0.177 C 
ENDROOT
BRANCH 150 151
ATOM    151  CB  LEU A 161     -17.046  -0.706  16.001  1.00 14.13     0.038 C 
BRANCH 151 152
ATOM    152  CG  LEU A 161     -17.569   0.655  15.558  1.00 19.39    -0.020 C 
ATOM    153  CD2 LEU A 161     -17.727   0.691  14.057  1.00 27.75     0.009 C 
ATOM    154  CD1 LEU A 161     -16.598   1.716  16.000  1.00 18.59     0.009 C 
ENDBRANCH 151 152
ENDBRANCH 150 151
END_RES LEU A 161
BEGIN_RES GLN A 168
REMARK  3 active torsions:
REMARK  status: ('A' for Active; 'I' for Inactive)
REMARK   48  A    between atoms: CA   and  CB  
REMARK   49  A    between atoms: CB   and  CG  
REMARK   50  A    between atoms: CG   and  CD  
REMARK       I    between atoms: CD   and  NE2 
ROOT
ATOM    155  CA  GLN A 168     -22.035  -6.020   8.155  1.00 30.94     0.177 C 
ENDROOT
BRANCH 155 156
ATOM    156  CB  GLN A 168     -23.054  -5.218   8.946  1.00 41.76     0.044 C 
BRANCH 156 157
ATOM    157  CG  GLN A 168     -24.481  -5.428   8.518  1.00 61.20     0.105 C 
BRANCH 157 158
ATOM    158  CD  GLN A 168     -24.980  -4.297   7.639  1.00 75.49     0.215 C 
ATOM    159  NE2 GLN A 168     -24.823  -4.460   6.324  1.00 85.00    -0.370 N 
ATOM    160  H06 GLN A 168     -25.132  -3.741   5.686  1.00 85.00     0.159 HD
ATOM    161  H07 GLN A 168     -24.394  -5.302   5.967  1.00 85.00     0.159 HD
ATOM    162  OE1 GLN A 168     -25.496  -3.284   8.131  1.00 73.64    -0.274 OA
ENDBRANCH 157 158
ENDBRANCH 156 157
ENDBRANCH 155 156
END_RES GLN A 168
ENDMDL
MODEL 8
REMARK VINA RESULT:      -6.9      1.318      2.395
REMARK  Name = human_CD1d_ODG_pred.rank_0
REMARK  9 active torsions:
REMARK  status: ('A' for Active; 'I' for Inactive)
REMARK    1  A    between atoms: C_7  and  O_8
REMARK    2  A    between atoms: O_8  and  C_9
REMARK    3  A    between atoms: C_9  and  C_11
REMARK    4  A    between atoms: C_11  and  C_13
REMARK    5  A    between atoms: C_13  and  C_14
REMARK    6  A    between atoms: C_14  and  C_15
REMARK    7  A    between atoms: C_15  and  C_16
REMARK    8  A    between atoms: C_16  and  C_17
REMARK    9  A    between atoms: C_19  and  C_20
REMARK                            x       y       z     vdW  Elec       q    Type
REMARK                         _______ _______ _______ _____ _____    ______ ____
ROOT
ATOM      1  C   UNL     1     -13.288  -0.719   9.582  0.00  0.00    +0.000 C 
ATOM      2  O   UNL     1     -12.873  -1.998   9.109  0.00  0.00    +0.000 OA
ATOM      3  C   UNL     1     -14.283  -0.101   8.609  0.00  0.00    +0.000 C 
ATOM      4  O   UNL     1     -13.657   0.148   7.387  0.00  0.00    +0.000 OA
ATOM      5  C   UNL     1     -14.819   1.203   9.183  0.00  0.00    +0.000 C 
ATOM      6  O   UNL     1     -15.849   1.695   8.303  0.00  0.00    +0.000 OA
ATOM      7  C   UNL     1     -15.468   0.920  10.553  0.00  0.00    +0.000 C 
ATOM      8  O   UNL     1     -14.471   0.393  11.477  0.00  0.00    +0.000 OA
ATOM      9  C   UNL     1     -13.943  -0.888  10.957  0.00  0.00    +0.000 C 
ENDROOT
BRANCH   9  11
ATOM     10  O   UNL     1     -13.551  -2.459  12.690  0.00  0.00    +0.000 OA
ATOM     11  C   UNL     1     -12.925  -1.388  11.978  0.00  0.00    +0.000 C 
ENDBRANCH   9  11
BRANCH   7  12
ATOM     12  O   UNL     1     -15.899   2.164  11.089  0.00  0.00    +0.000 OA
BRANCH  12  13
ATOM     13  C   UNL     1     -14.944   2.734  11.981  0.00  0.00    +0.000 C 
BRANCH  13  14
ATOM     14  C   UNL     1     -15.755   3.683  12.902  0.00  0.00    +0.000 C 
BRANCH  14  15
ATOM     15  C   UNL     1     -15.175   3.630  14.315  0.00  0.00    +0.000 C 
BRANCH  15  16
ATOM     16  C   UNL     1     -14.244   2.404  14.425  0.00  0.00    +0.000 C 
BRANCH  16  17
ATOM     17  C   UNL     1     -13.260   2.655  15.521  0.00  0.00    +0.000 C 
BRANCH  17  18
ATOM     18  C   UNL     1     -12.835   4.129  15.465  0.00  0.00    +0.000 C 
BRANCH  18  19
ATOM     19  C   UNL     1     -11.450   4.237  16.033  0.00  0.00    +0.000 C 
ATOM     20  C   UNL     1     -10.758   5.453  15.434  0.00  0.00    +0.000 C 
ENDBRANCH  18  19
ENDBRANCH  17  18
ENDBRANCH  16  17
ENDBRANCH  15  16
ENDBRANCH  14  15
ENDBRANCH  13  14
ENDBRANCH  12  13
ENDBRANCH   7  12
TORSDOF 9
BEGIN_RES LEU A  10
REMARK  2 active torsions:
REMARK  status: ('A' for Active; 'I' for Inactive)
REMARK    1  A    between atoms: CA   and  CB  
REMARK    2  A    between atoms: CB   and  CG  
ROOT
ATOM      1  CA  LEU A  10     -10.775  -4.871   5.898  1.00 25.14     0.177 C 
ENDROOT
BRANCH   1   2
ATOM      2  CB  LEU A  10     -12.191  -4.387   6.226  1.00 17.87     0.038 C 
BRANCH   2   3
ATOM      3  CG  LEU A  10     -12.713  -3.286   5.301  1.00 24.95    -0.020 C 
ATOM      4  CD2 LEU A  10     -11.801  -2.109   5.382  1.00 26.38     0.009 C 
ATOM      5  CD1 LEU A  10     -14.131  -2.889   5.675  1.00 28.12     0.009 C 
ENDBRANCH   2   3
ENDBRANCH   1   2
END_RES LEU A  10
BEGIN_RES CYS A  12
REMARK  2 active torsions:
REMARK  status: ('A' for Active; 'I' for Inactive)
REMARK    3  A    between atoms: CA   and  CB  
REMARK    4  A    between atoms: CB   and  SG  
ROOT
ATOM      6  CA  CYS A  12      -8.555   0.470   8.750  1.00 23.16     0.185 C 
ENDROOT
BRANCH   6   7
ATOM      7  CB  CYS A  12      -9.828   0.763   9.555  1.00 20.43     0.105 C 
BRANCH   7   8
ATOM      8  SG  CYS A  12     -10.873   2.116   8.934  1.00 24.64    -0.180 SA
ATOM      9  H04 CYS A  12     -11.888   1.608   8.223  1.00 24.64     0.101 HD
ENDBRANCH   7   8
ENDBRANCH   6   7
END_RES CYS A  12
BEGIN_RES GLN A  14
REMARK  3 active torsions:
REMARK  status: ('A' for Active; 'I' for Inactive)
REMARK    5  A    between atoms: CA   and  CB  
REMARK    6  A    between atoms: CB   and  CG  
REMARK    7  A    between atoms: CG   and  CD  
REMARK       I    between atoms: CD   and  NE2 
ROOT
ATOM     10  CA  GLN A  14      -4.645   5.402  11.377  1.00 10.43     0.177 C 
ENDROOT
BRANCH  10  11
ATOM     11  CB  GLN A  14      -5.541   5.549  12.608  1.00 14.45     0.044 C 
BRANCH  11  12
ATOM     12  CG  GLN A  14      -6.617   6.601  12.466  1.00 13.74     0.105 C 
BRANCH  12  13
ATOM     13  CD  GLN A  14      -6.048   7.990  12.299  1.00 16.29     0.215 C 
ATOM     14  NE2 GLN A  14      -6.649   8.769  11.427  1.00  8.57    -0.370 N 
ATOM     15  H06 GLN A  14      -6.313   9.709  11.274  1.00  8.57     0.159 HD
ATOM     16  H07 GLN A  14      -7.447   8.427  10.910  1.00  8.57     0.159 HD
ATOM     17  OE1 GLN A  14      -5.082   8.357  12.950  1.00 23.55    -0.274 OA
ENDBRANCH  12  13
ENDBRANCH  11  12
ENDBRANCH  10  11
END_RES GLN A  14
BEGIN_RES SER A  16
REMARK  2 active torsions:
REMARK  status: ('A' for Active; 'I' for Inactive)
REMARK    8  A    between atoms: CA   and  CB  
REMARK    9  A    between atoms: CB   and  OG  
ROOT
ATOM     18  CA  SER A  16      -1.305  10.019  14.282  1.00  2.34     0.200 C 
ENDROOT
BRANCH  18  19
ATOM     19  CB  SER A  16      -2.242   9.935  15.479  1.00  3.12     0.199 C 
BRANCH  19  20
ATOM     20  OG  SER A  16      -3.468   9.332  15.104  1.00  1.00    -0.398 OA
ATOM     21  H04 SER A  16      -3.628   9.486  14.170  1.00  1.00     0.209 HD
ENDBRANCH  19  20
ENDBRANCH  18  19
END_RES SER A  16
BEGIN_RES LEU A  32
REMARK  2 active torsions:
REMARK  status: ('A' for Active; 'I' for Inactive)
REMARK   10  A    between atoms: CA   and  CB  
REMARK   11  A    between atoms: CB   and  CG  
ROOT
ATOM     22  CA  LEU A  32     -10.272  -4.106   1.587  1.00 16.16     0.177 C 
ENDROOT
BRANCH  22  23
ATOM     23  CB  LEU A  32     -11.613  -3.858   0.880  1.00 12.35     0.038 C 
BRANCH  23  24
ATOM     24  CG  LEU A  32     -12.541  -5.087   0.962  1.00  9.77    -0.020 C 
ATOM     25  CD1 LEU A  32     -13.055  -5.264   2.371  1.00  4.35     0.009 C 
ATOM     26  CD2 LEU A  32     -13.702  -4.948   0.012  1.00 10.60     0.009 C 
ENDBRANCH  23  24
ENDBRANCH  22  23
END_RES LEU A  32
BEGIN_RES HIS A  38
REMARK  2 active torsions:
REMARK  status: ('A' for Active; 'I' for Inactive)
REMARK   12  A    between atoms: CA   and  CB  
REMARK   13  A    between atoms: CB   and  CG  
ROOT
ATOM     27  CA  HIS A  38     -10.959   4.941   1.621  1.00 16.94     0.182 C 
ENDROOT
BRANCH  27  28
ATOM     28  CB  HIS A  38     -11.810   4.840   2.881  1.00 15.47     0.095 C 
BRANCH  28  29
ATOM     29  CG  HIS A  38     -12.995   3.940   2.739  1.00 18.62     0.053 A 
ATOM     30  CD2 HIS A  38     -14.155   4.099   2.058  1.00 15.06     0.116 A 
ATOM     31  NE2 HIS A  38     -14.887   2.954   2.238  1.00 18.12    -0.359 N 
ATOM     32  CE1 HIS A  38     -14.204   2.122   3.001  1.00 14.78     0.207 A 
ATOM     33  H06 HIS A  38     -15.802   2.776   1.849  1.00 18.12     0.166 HD
ATOM     34  ND1 HIS A  38     -13.059   2.692   3.319  1.00 16.58    -0.247 NA
ENDBRANCH  28  29
ENDBRANCH  27  28
END_RES HIS A  38
BEGIN_RES TRP A  63
REMARK  2 active torsions:
REMARK  status: ('A' for Active; 'I' for Inactive)
REMARK   14  A    between atoms: CA   and  CB  
REMARK   15  A    between atoms: CB   and  CG  
ROOT
ATOM     35  CA  TRP A  63     -22.437   6.257   6.543  1.00 27.04     0.181 C 
ENDROOT
BRANCH  35  36
ATOM     36  CB  TRP A  63     -22.360   6.642   5.068  1.00 31.37     0.075 C 
BRANCH  36  37
ATOM     37  CG  TRP A  63     -20.953   6.801   4.532  1.00 34.37    -0.028 A 
ATOM     38  CD2 TRP A  63     -19.882   5.849   4.608  1.00 33.79    -0.002 A 
ATOM     39  CE3 TRP A  63     -19.742   4.588   5.192  1.00 32.99     0.014 A 
ATOM     40  CE2 TRP A  63     -18.784   6.401   3.913  1.00 35.84     0.042 A 
ATOM     41  CZ3 TRP A  63     -18.530   3.926   5.067  1.00 32.93     0.001 A 
ATOM     42  CH2 TRP A  63     -17.455   4.502   4.370  1.00 39.24     0.002 A 
ATOM     43  CZ2 TRP A  63     -17.564   5.735   3.786  1.00 37.99     0.030 A 
ATOM     44  NE1 TRP A  63     -19.172   7.625   3.442  1.00 37.98    -0.365 N 
ATOM     45  H06 TRP A  63     -18.596   8.257   2.904  1.00 37.98     0.165 HD
ATOM     46  CD1 TRP A  63     -20.473   7.856   3.821  1.00 38.16     0.096 A 
ENDBRANCH  36  37
ENDBRANCH  35  36
END_RES TRP A  63
BEGIN_RES LEU A  66
REMARK  2 active torsions:
REMARK  status: ('A' for Active; 'I' for Inactive)
REMARK   16  A    between atoms: CA   and  CB  
REMARK   17  A    between atoms: CB   and  CG  
ROOT
ATOM     47  CA  LEU A  66     -20.004   6.489  11.120  1.00 10.90     0.177 C 
ENDROOT
BRANCH  47  48
ATOM     48  CB  LEU A  66     -19.626   5.453  10.069  1.00 13.57     0.038 C 
BRANCH  48  49
ATOM     49  CG  LEU A  66     -19.370   4.026  10.553  1.00  8.73    -0.020 C 
ATOM     50  CD1 LEU A  66     -19.342   3.974  12.059  1.00 14.23     0.009 C 
ATOM     51  CD2 LEU A  66     -20.468   3.139  10.025  1.00  1.92     0.009 C 
ENDBRANCH  48  49
ENDBRANCH  47  48
END_RES LEU A  66
BEGIN_RES PHE A  70
REMARK  2 active torsions:
REMARK  status: ('A' for Active; 'I' for Inactive)
REMARK   18  A    between atoms: CA   and  CB  
REMARK   19  A    between atoms: CB   and  CG  
ROOT
ATOM     52  CA  PHE A  70     -14.974   9.434  13.165  1.00  8.78     0.180 C 
ENDROOT
BRANCH  52  53
ATOM     53  CB  PHE A  70     -14.707   9.132  11.681  1.00  6.33     0.073 C 
BRANCH  53  54
ATOM     54  CG  PHE A  70     -13.936   7.859  11.459  1.00  3.42    -0.056 A 
ATOM     55  CD1 PHE A  70     -13.706   7.376  10.180  1.00 13.88     0.007 A 
ATOM     56  CE1 PHE A  70     -13.026   6.162   9.981  1.00 12.71     0.001 A 
ATOM     57  CZ  PHE A  70     -12.570   5.426  11.075  1.00  4.21     0.000 A 
ATOM     58  CE2 PHE A  70     -12.791   5.899  12.355  1.00  2.83     0.001 A 
ATOM     59  CD2 PHE A  70     -13.472   7.113  12.543  1.00  1.00     0.007 A 
ENDBRANCH  53  54
ENDBRANCH  52  53
END_RES PHE A  70
BEGIN_RES TYR A  73
REMARK  3 active torsions:
REMARK  status: ('A' for Active; 'I' for Inactive)
REMARK   20  A    between atoms: CA   and  CB  
REMARK   21  A    between atoms: CB   and  CG  
REMARK   22  A    between atoms: CZ   and  OH  
ROOT
ATOM     60  CA  TYR A  73     -13.212  10.166  17.260  1.00 12.17     0.180 C 
ENDROOT
BRANCH  60  61
ATOM     61  CB  TYR A  73     -13.301   8.846  16.517  1.00 12.84     0.073 C 
BRANCH  61  62
ATOM     62  CG  TYR A  73     -13.247   7.663  17.420  1.00 15.89    -0.056 A 
ATOM     63  CD1 TYR A  73     -14.312   6.796  17.519  1.00 16.00     0.010 A 
ATOM     64  CE1 TYR A  73     -14.276   5.705  18.387  1.00 13.55     0.037 A 
ATOM     65  CZ  TYR A  73     -13.153   5.492  19.161  1.00 18.13     0.065 A 
ATOM     66  CE2 TYR A  73     -12.075   6.343  19.080  1.00 15.89     0.037 A 
ATOM     67  CD2 TYR A  73     -12.128   7.425  18.209  1.00 21.86     0.010 A 
BRANCH  65  68
ATOM     68  OH  TYR A  73     -13.093   4.421  20.018  1.00 12.12    -0.361 OA
ATOM     69  H08 TYR A  73     -12.300   3.910  19.838  1.00 12.12     0.217 HD
ENDBRANCH  65  68
ENDBRANCH  61  62
ENDBRANCH  60  61
END_RES TYR A  73
BEGIN_RES PHE A  77
REMARK  2 active torsions:
REMARK  status: ('A' for Active; 'I' for Inactive)
REMARK   23  A    between atoms: CA   and  CB  
REMARK   24  A    between atoms: CB   and  CG  
ROOT
ATOM     70  CA  PHE A  77      -8.400  10.581  20.110  1.00 17.17     0.180 C 
ENDROOT
BRANCH  70  71
ATOM     71  CB  PHE A  77      -8.228   9.750  18.851  1.00 10.44     0.073 C 
BRANCH  71  72
ATOM     72  CG  PHE A  77      -8.332   8.275  19.083  1.00  6.07    -0.056 A 
ATOM     73  CD2 PHE A  77      -8.494   7.777  20.356  1.00  9.61     0.007 A 
ATOM     74  CE2 PHE A  77      -8.593   6.409  20.581  1.00  1.00     0.001 A 
ATOM     75  CZ  PHE A  77      -8.531   5.527  19.515  1.00  1.92     0.000 A 
ATOM     76  CE1 PHE A  77      -8.370   6.009  18.236  1.00  9.25     0.001 A 
ATOM     77  CD1 PHE A  77      -8.271   7.384  18.024  1.00  9.63     0.007 A 
ENDBRANCH  71  72
ENDBRANCH  70  71
END_RES PHE A  77
BEGIN_RES LEU A  96
REMARK  2 active torsions:
REMARK  status: ('A' for Active; 'I' for Inactive)
REMARK   25  A    between atoms: CA   and  CB  
REMARK   26  A    between atoms: CB   and  CG  
ROOT
ATOM     78  CA  LEU A  96       0.717   6.481  17.359  1.00 16.08     0.177 C 
ENDROOT
BRANCH  78  79
ATOM     79  CB  LEU A  96      -0.370   7.101  18.230  1.00 18.83     0.038 C 
BRANCH  79  80
ATOM     80  CG  LEU A  96      -0.147   6.941  19.734  1.00 19.03    -0.020 C 
ATOM     81  CD1 LEU A  96       0.567   8.167  20.254  1.00 28.17     0.009 C 
ATOM     82  CD2 LEU A  96      -1.470   6.816  20.453  1.00 22.01     0.009 C 
ENDBRANCH  79  80
ENDBRANCH  78  79
END_RES LEU A  96
BEGIN_RES VAL A  98
REMARK  1 active torsions:
REMARK  status: ('A' for Active; 'I' for Inactive)
REMARK   27  A    between atoms: CA   and  CB  
ROOT
ATOM     83  CA  VAL A  98      -3.928   2.082  14.897  1.00 19.83     0.180 C 
ENDROOT
BRANCH  83  84
ATOM     84  CB  VAL A  98      -5.203   2.807  15.281  1.00 17.87     0.009 C 
ATOM     85  CG2 VAL A  98      -4.925   4.276  15.471  1.00 29.90     0.012 C 
ATOM     86  CG1 VAL A  98      -5.770   2.199  16.546  1.00 14.79     0.012 C 
ENDBRANCH  83  84
END_RES VAL A  98
BEGIN_RES ASN A 112
REMARK  2 active torsions:
REMARK  status: ('A' for Active; 'I' for Inactive)
REMARK   28  A    between atoms: CA   and  CB  
REMARK   29  A    between atoms: CB   and  CG  
REMARK       I    between atoms: CG   and  ND2 
ROOT
ATOM     87  CA  ASN A 112     -11.790  -8.793  14.069  1.00 37.70     0.185 C 
ENDROOT
BRANCH  87  88
ATOM     88  CB  ASN A 112     -12.992  -7.945  14.465  1.00 26.24     0.137 C 
BRANCH  88  89
ATOM     89  CG  ASN A 112     -13.816  -8.565  15.571  1.00 21.77     0.217 C 
ATOM     90  ND2 ASN A 112     -14.966  -9.129  15.203  1.00  9.31    -0.370 N 
ATOM     91  H04 ASN A 112     -15.562  -9.558  15.896  1.00  9.31     0.159 HD
ATOM     92  H05 ASN A 112     -15.240  -9.127  14.231  1.00  9.31     0.159 HD
ATOM     93  OD1 ASN A 112     -13.429  -8.535  16.746  1.00 21.61    -0.274 OA
ENDBRANCH  88  89
ENDBRANCH  87  88
END_RES ASN A 112
BEGIN_RES PHE A 114
REMARK  2 active torsions:
REMARK  status: ('A' for Active; 'I' for Inactive)
REMARK   30  A    between atoms: CA   and  CB  
REMARK   31  A    between atoms: CB   and  CG  
ROOT
ATOM     94  CA  PHE A 114      -7.754  -3.619  17.012  1.00 26.06     0.180 C 
ENDROOT
BRANCH  94  95
ATOM     95  CB  PHE A 114      -8.890  -3.080  17.867  1.00 19.95     0.073 C 
BRANCH  95  96
ATOM     96  CG  PHE A 114      -9.201  -1.643  17.601  1.00 17.65    -0.056 A 
ATOM     97  CD1 PHE A 114     -10.518  -1.210  17.475  1.00 13.01     0.007 A 
ATOM     98  CE1 PHE A 114     -10.806   0.120  17.199  1.00  6.74     0.001 A 
ATOM     99  CZ  PHE A 114      -9.774   1.041  17.048  1.00  6.27     0.000 A 
ATOM    100  CE2 PHE A 114      -8.459   0.622  17.173  1.00 17.36     0.001 A 
ATOM    101  CD2 PHE A 114      -8.175  -0.720  17.449  1.00 18.39     0.007 A 
ENDBRANCH  95  96
ENDBRANCH  94  95
END_RES PHE A 114
BEGIN_RES VAL A 116
REMARK  1 active torsions:
REMARK  status: ('A' for Active; 'I' for Inactive)
REMARK   32  A    between atoms: CA   and  CB  
ROOT
ATOM    102  CA  VAL A 116      -2.467   0.283  18.565  1.00 13.48     0.180 C 
ENDROOT
BRANCH 102 103
ATOM    103  CB  VAL A 116      -3.101   1.238  19.599  1.00 20.86     0.009 C 
ATOM    104  CG1 VAL A 116      -3.023   2.677  19.082  1.00 25.01     0.012 C 
ATOM    105  CG2 VAL A 116      -4.524   0.833  19.905  1.00 25.34     0.012 C 
ENDBRANCH 102 103
END_RES VAL A 116
BEGIN_RES ILE A 123
REMARK  2 active torsions:
REMARK  status: ('A' for Active; 'I' for Inactive)
REMARK   33  A    between atoms: CA   and  CB  
REMARK   34  A    between atoms: CB   and  CG1 
ROOT
ATOM    106  CA  ILE A 123       1.557  -1.626  23.222  1.00 15.07     0.180 C 
ENDROOT
BRANCH 106 107
ATOM    107  CB  ILE A 123       1.697  -0.112  23.461  1.00 14.41     0.013 C 
ATOM    108  CG2 ILE A 123       3.085   0.202  23.991  1.00 18.35     0.012 C 
BRANCH 107 109
ATOM    109  CG1 ILE A 123       1.441   0.655  22.166  1.00 15.23     0.002 C 
ATOM    110  CD1 ILE A 123       0.192   1.503  22.202  1.00 14.67     0.005 C 
ENDBRANCH 107 109
ENDBRANCH 106 107
END_RES ILE A 123
BEGIN_RES LEU A 124
REMARK  2 active torsions:
REMARK  status: ('A' for Active; 'I' for Inactive)
REMARK   35  A    between atoms: CA   and  CB  
REMARK   36  A    between atoms: CB   and  CG  
ROOT
ATOM    111  CA  LEU A 124      -2.057  -2.686  23.524  1.00 11.86     0.177 C 
ENDROOT
BRANCH 111 112
ATOM    112  CB  LEU A 124      -2.698  -1.652  24.429  1.00 14.60     0.038 C 
BRANCH 112 113
ATOM    113  CG  LEU A 124      -2.635  -0.254  23.833  1.00 16.19    -0.020 C 
ATOM    114  CD1 LEU A 124      -4.061   0.198  23.461  1.00 22.07     0.009 C 
ATOM    115  CD2 LEU A 124      -1.988   0.685  24.821  1.00  9.12     0.009 C 
ENDBRANCH 112 113
ENDBRANCH 111 112
END_RES LEU A 124
BEGIN_RES PHE A 126
REMARK  2 active torsions:
REMARK  status: ('A' for Active; 'I' for Inactive)
REMARK   37  A    between atoms: CA   and  CB  
REMARK   38  A    between atoms: CB   and  CG  
ROOT
ATOM    116  CA  PHE A 126      -8.784  -4.792  22.233  1.00 23.15     0.180 C 
ENDROOT
BRANCH 116 117
ATOM    117  CB  PHE A 126      -9.823  -4.011  21.461  1.00 20.65     0.073 C 
BRANCH 117 118
ATOM    118  CG  PHE A 126     -10.952  -3.546  22.296  1.00 23.65    -0.056 A 
ATOM    119  CD2 PHE A 126     -10.769  -2.549  23.238  1.00 36.63     0.007 A 
ATOM    120  CE2 PHE A 126     -11.840  -2.108  24.027  1.00 36.27     0.001 A 
ATOM    121  CZ  PHE A 126     -13.096  -2.675  23.868  1.00 18.06     0.000 A 
ATOM    122  CE1 PHE A 126     -13.282  -3.669  22.928  1.00  5.50     0.001 A 
ATOM    123  CD1 PHE A 126     -12.211  -4.099  22.144  1.00 15.29     0.007 A 
ENDBRANCH 117 118
ENDBRANCH 116 117
END_RES PHE A 126
BEGIN_RES TRP A 131
REMARK  2 active torsions:
REMARK  status: ('A' for Active; 'I' for Inactive)
REMARK   39  A    between atoms: CA   and  CB  
REMARK   40  A    between atoms: CB   and  CG  
ROOT
ATOM    124  CA  TRP A 131      -8.096  -3.335  26.542  1.00 14.52     0.181 C 
ENDROOT
BRANCH 124 125
ATOM    125  CB  TRP A 131      -7.651  -1.877  26.607  1.00 13.06     0.075 C 
BRANCH 125 126
ATOM    126  CG  TRP A 131      -8.052  -1.051  25.405  1.00 16.97    -0.028 A 
ATOM    127  CD2 TRP A 131      -9.133  -0.117  25.335  1.00 11.34    -0.002 A 
ATOM    128  CE2 TRP A 131      -9.139   0.426  24.036  1.00  5.87     0.042 A 
ATOM    129  CE3 TRP A 131     -10.100   0.311  26.252  1.00  3.80     0.014 A 
ATOM    130  CZ2 TRP A 131     -10.074   1.380  23.629  1.00  1.35     0.030 A 
ATOM    131  NE1 TRP A 131      -8.110  -0.151  23.344  1.00 13.90    -0.365 N 
ATOM    132  CH2 TRP A 131     -11.010   1.783  24.549  1.00  1.00     0.002 A 
ATOM    133  CZ3 TRP A 131     -11.030   1.255  25.854  1.00  1.00     0.001 A 
ATOM    134  CD1 TRP A 131      -7.460  -1.037  24.171  1.00 17.22     0.096 A 
ATOM    135  H07 TRP A 131      -7.866   0.042  22.383  1.00 13.90     0.165 HD
ENDBRANCH 125 126
ENDBRANCH 124 125
END_RES TRP A 131
BEGIN_RES LEU A 148
REMARK  2 active torsions:
REMARK  status: ('A' for Active; 'I' for Inactive)
REMARK   41  A    between atoms: CA   and  CB  
REMARK   42  A    between atoms: CB   and  CG  
ROOT
ATOM    136  CA  LEU A 148      -9.018   3.259  29.295  1.00 16.99     0.177 C 
ENDROOT
BRANCH 136 137
ATOM    137  CB  LEU A 148      -8.166   2.574  28.236  1.00  6.39     0.038 C 
BRANCH 137 138
ATOM    138  CG  LEU A 148      -7.540   3.364  27.104  1.00  1.00    -0.020 C 
ATOM    139  CD2 LEU A 148      -8.605   4.038  26.289  1.00  1.00     0.009 C 
ATOM    140  CD1 LEU A 148      -6.736   2.406  26.244  1.00  2.71     0.009 C 
ENDBRANCH 137 138
ENDBRANCH 136 137
END_RES LEU A 148
BEGIN_RES THR A 154
REMARK  2 active torsions:
REMARK  status: ('A' for Active; 'I' for Inactive)
REMARK   43  A    between atoms: CA   and  CB  
REMARK   44  A    between atoms: CB   and  OG1 
ROOT
ATOM    141  CA  THR A 154     -15.990   3.959  24.426  1.00 20.45     0.205 C 
ENDROOT
BRANCH 141 142
ATOM    142  CB  THR A 154     -14.777   4.829  24.694  1.00 16.79     0.146 C 
ATOM    143  CG2 THR A 154     -13.668   4.497  23.714  1.00 20.24     0.042 C 
BRANCH 142 144
ATOM    144  OG1 THR A 154     -15.146   6.204  24.527  1.00 18.84    -0.393 OA
ATOM    145  H06 THR A 154     -14.640   6.747  25.136  1.00 18.84     0.210 HD
ENDBRANCH 142 144
ENDBRANCH 141 142
END_RES THR A 154
BEGIN_RES VAL A 158
REMARK  1 active torsions:
REMARK  status: ('A' for Active; 'I' for Inactive)
REMARK   45  A    between atoms: CA   and  CB  
ROOT
ATOM    146  CA  VAL A 158     -15.487  -0.189  19.892  1.00 15.49     0.180 C 
ENDROOT
BRANCH 146 147
ATOM    147  CB  VAL A 158     -14.291  -0.273  20.822  1.00  6.52     0.009 C 
ATOM    148  CG1 VAL A 158     -13.238  -1.202  20.263  1.00  1.00     0.012 C 
ATOM    149  CG2 VAL A 158     -13.734   1.104  21.014  1.00  5.99     0.012 C 
ENDBRANCH 146 147
END_RES VAL A 158
BEGIN_RES LEU A 161
REMARK  2 active torsions:
REMARK  status: ('A' for Active; 'I' for Inactive)
REMARK   46  A    between atoms: CA   and  CB  
REMARK   47  A    between atoms: CB   and  CG  
ROOT
ATOM    150  CA  LEU A 161     -18.031  -1.858  15.935  1.00 13.31     0.177 C 
ENDROOT
BRANCH 150 151
ATOM    151  CB  LEU A 161     -17.046  -0.706  16.001  1.00 14.13     0.038 C 
BRANCH 151 152
ATOM    152  CG  LEU A 161     -17.429   0.554  15.235  1.00 19.39    -0.020 C 
ATOM    153  CD2 LEU A 161     -18.845   0.957  15.568  1.00 27.75     0.009 C 
ATOM    154  CD1 LEU A 161     -17.303   0.284  13.760  1.00 18.59     0.009 C 
ENDBRANCH 151 152
ENDBRANCH 150 151
END_RES LEU A 161
BEGIN_RES GLN A 168
REMARK  3 active torsions:
REMARK  status: ('A' for Active; 'I' for Inactive)
REMARK   48  A    between atoms: CA   and  CB  
REMARK   49  A    between atoms: CB   and  CG  
REMARK   50  A    between atoms: CG   and  CD  
REMARK       I    between atoms: CD   and  NE2 
ROOT
ATOM    155  CA  GLN A 168     -22.035  -6.020   8.155  1.00 30.94     0.177 C 
ENDROOT
BRANCH 155 156
ATOM    156  CB  GLN A 168     -23.054  -5.218   8.946  1.00 41.76     0.044 C 
BRANCH 156 157
ATOM    157  CG  GLN A 168     -24.414  -5.855   9.038  1.00 61.20     0.105 C 
BRANCH 157 158
ATOM    158  CD  GLN A 168     -24.622  -6.557  10.366  1.00 75.49     0.215 C 
ATOM    159  NE2 GLN A 168     -25.097  -7.802  10.307  1.00 85.00    -0.370 N 
ATOM    160  H06 GLN A 168     -25.259  -8.321  11.158  1.00 85.00     0.159 HD
ATOM    161  H07 GLN A 168     -25.295  -8.225   9.411  1.00 85.00     0.159 HD
ATOM    162  OE1 GLN A 168     -24.365  -5.988  11.436  1.00 73.64    -0.274 OA
ENDBRANCH 157 158
ENDBRANCH 156 157
ENDBRANCH 155 156
END_RES GLN A 168
ENDMDL
MODEL 9
REMARK VINA RESULT:      -6.8      1.123      1.956
REMARK  Name = human_CD1d_ODG_pred.rank_0
REMARK  9 active torsions:
REMARK  status: ('A' for Active; 'I' for Inactive)
REMARK    1  A    between atoms: C_7  and  O_8
REMARK    2  A    between atoms: O_8  and  C_9
REMARK    3  A    between atoms: C_9  and  C_11
REMARK    4  A    between atoms: C_11  and  C_13
REMARK    5  A    between atoms: C_13  and  C_14
REMARK    6  A    between atoms: C_14  and  C_15
REMARK    7  A    between atoms: C_15  and  C_16
REMARK    8  A    between atoms: C_16  and  C_17
REMARK    9  A    between atoms: C_19  and  C_20
REMARK                            x       y       z     vdW  Elec       q    Type
REMARK                         _______ _______ _______ _____ _____    ______ ____
ROOT
ATOM      1  C   UNL     1     -16.024  -0.146  11.143  0.00  0.00    +0.000 C 
ATOM      2  O   UNL     1     -17.028  -0.875  11.842  0.00  0.00    +0.000 OA
ATOM      3  C   UNL     1     -14.747  -0.970  11.053  0.00  0.00    +0.000 C 
ATOM      4  O   UNL     1     -14.225  -1.174  12.331  0.00  0.00    +0.000 OA
ATOM      5  C   UNL     1     -13.724  -0.239  10.195  0.00  0.00    +0.000 C 
ATOM      6  O   UNL     1     -12.580  -1.101  10.024  0.00  0.00    +0.000 OA
ATOM      7  C   UNL     1     -14.330   0.019   8.801  0.00  0.00    +0.000 C 
ATOM      8  O   UNL     1     -15.510   0.866   8.920  0.00  0.00    +0.000 OA
ATOM      9  C   UNL     1     -16.535   0.175   9.734  0.00  0.00    +0.000 C 
ENDROOT
BRANCH   9  11
ATOM     10  O   UNL     1     -18.080   1.435   8.451  0.00  0.00    +0.000 OA
ATOM     11  C   UNL     1     -17.742   1.106   9.800  0.00  0.00    +0.000 C 
ENDBRANCH   9  11
BRANCH   7  12
ATOM     12  O   UNL     1     -13.376   0.757   8.048  0.00  0.00    +0.000 OA
BRANCH  12  13
ATOM     13  C   UNL     1     -13.953   1.387   6.906  0.00  0.00    +0.000 C 
BRANCH  13  14
ATOM     14  C   UNL     1     -13.270   2.777   6.815  0.00  0.00    +0.000 C 
BRANCH  14  15
ATOM     15  C   UNL     1     -13.976   3.748   7.762  0.00  0.00    +0.000 C 
BRANCH  15  16
ATOM     16  C   UNL     1     -14.607   4.883   6.927  0.00  0.00    +0.000 C 
BRANCH  16  17
ATOM     17  C   UNL     1     -15.703   5.506   7.731  0.00  0.00    +0.000 C 
BRANCH  17  18
ATOM     18  C   UNL     1     -16.228   4.464   8.728  0.00  0.00    +0.000 C 
BRANCH  18  19
ATOM     19  C   UNL     1     -16.211   5.078  10.097  0.00  0.00    +0.000 C 
ATOM     20  C   UNL     1     -15.804   4.021  11.114  0.00  0.00    +0.000 C 
ENDBRANCH  18  19
ENDBRANCH  17  18
ENDBRANCH  16  17
ENDBRANCH  15  16
ENDBRANCH  14  15
ENDBRANCH  13  14
ENDBRANCH  12  13
ENDBRANCH   7  12
TORSDOF 9
BEGIN_RES LEU A  10
REMARK  2 active torsions:
REMARK  status: ('A' for Active; 'I' for Inactive)
REMARK    1  A    between atoms: CA   and  CB  
REMARK    2  A    between atoms: CB   and  CG  
ROOT
ATOM      1  CA  LEU A  10     -10.775  -4.871   5.898  1.00 25.14     0.177 C 
ENDROOT
BRANCH   1   2
ATOM      2  CB  LEU A  10     -12.191  -4.387   6.226  1.00 17.87     0.038 C 
BRANCH   2   3
ATOM      3  CG  LEU A  10     -12.450  -2.916   5.893  1.00 24.95    -0.020 C 
ATOM      4  CD2 LEU A  10     -13.763  -2.510   6.473  1.00 26.38     0.009 C 
ATOM      5  CD1 LEU A  10     -12.435  -2.689   4.391  1.00 28.12     0.009 C 
ENDBRANCH   2   3
ENDBRANCH   1   2
END_RES LEU A  10
BEGIN_RES CYS A  12
REMARK  2 active torsions:
REMARK  status: ('A' for Active; 'I' for Inactive)
REMARK    3  A    between atoms: CA   and  CB  
REMARK    4  A    between atoms: CB   and  SG  
ROOT
ATOM      6  CA  CYS A  12      -8.555   0.470   8.750  1.00 23.16     0.185 C 
ENDROOT
BRANCH   6   7
ATOM      7  CB  CYS A  12      -9.828   0.763   9.555  1.00 20.43     0.105 C 
BRANCH   7   8
ATOM      8  SG  CYS A  12     -10.503   2.445   9.400  1.00 24.64    -0.180 SA
ATOM      9  H04 CYS A  12     -11.575   2.425   8.597  1.00 24.64     0.101 HD
ENDBRANCH   7   8
ENDBRANCH   6   7
END_RES CYS A  12
BEGIN_RES GLN A  14
REMARK  3 active torsions:
REMARK  status: ('A' for Active; 'I' for Inactive)
REMARK    5  A    between atoms: CA   and  CB  
REMARK    6  A    between atoms: CB   and  CG  
REMARK    7  A    between atoms: CG   and  CD  
REMARK       I    between atoms: CD   and  NE2 
ROOT
ATOM     10  CA  GLN A  14      -4.645   5.402  11.377  1.00 10.43     0.177 C 
ENDROOT
BRANCH  10  11
ATOM     11  CB  GLN A  14      -5.541   5.549  12.608  1.00 14.45     0.044 C 
BRANCH  11  12
ATOM     12  CG  GLN A  14      -6.658   6.553  12.442  1.00 13.74     0.105 C 
BRANCH  12  13
ATOM     13  CD  GLN A  14      -7.942   5.916  11.968  1.00 16.29     0.215 C 
ATOM     14  NE2 GLN A  14      -8.117   5.848  10.666  1.00  8.57    -0.370 N 
ATOM     15  H06 GLN A  14      -8.956   5.431  10.290  1.00  8.57     0.159 HD
ATOM     16  H07 GLN A  14      -7.412   6.214  10.042  1.00  8.57     0.159 HD
ATOM     17  OE1 GLN A  14      -8.763   5.487  12.763  1.00 23.55    -0.274 OA
ENDBRANCH  12  13
ENDBRANCH  11  12
ENDBRANCH  10  11
END_RES GLN A  14
BEGIN_RES SER A  16
REMARK  2 active torsions:
REMARK  status: ('A' for Active; 'I' for Inactive)
REMARK    8  A    between atoms: CA   and  CB  
REMARK    9  A    between atoms: CB   and  OG  
ROOT
ATOM     18  CA  SER A  16      -1.305  10.019  14.282  1.00  2.34     0.200 C 
ENDROOT
BRANCH  18  19
ATOM     19  CB  SER A  16      -2.242   9.935  15.479  1.00  3.12     0.199 C 
BRANCH  19  20
ATOM     20  OG  SER A  16      -3.466   9.328  15.105  1.00  1.00    -0.398 OA
ATOM     21  H04 SER A  16      -3.675   8.622  15.721  1.00  1.00     0.209 HD
ENDBRANCH  19  20
ENDBRANCH  18  19
END_RES SER A  16
BEGIN_RES LEU A  32
REMARK  2 active torsions:
REMARK  status: ('A' for Active; 'I' for Inactive)
REMARK   10  A    between atoms: CA   and  CB  
REMARK   11  A    between atoms: CB   and  CG  
ROOT
ATOM     22  CA  LEU A  32     -10.272  -4.106   1.587  1.00 16.16     0.177 C 
ENDROOT
BRANCH  22  23
ATOM     23  CB  LEU A  32     -11.613  -3.858   0.880  1.00 12.35     0.038 C 
BRANCH  23  24
ATOM     24  CG  LEU A  32     -12.493  -5.124   0.857  1.00  9.77    -0.020 C 
ATOM     25  CD1 LEU A  32     -13.013  -5.428   2.242  1.00  4.35     0.009 C 
ATOM     26  CD2 LEU A  32     -13.649  -4.958  -0.094  1.00 10.60     0.009 C 
ENDBRANCH  23  24
ENDBRANCH  22  23
END_RES LEU A  32
BEGIN_RES HIS A  38
REMARK  2 active torsions:
REMARK  status: ('A' for Active; 'I' for Inactive)
REMARK   12  A    between atoms: CA   and  CB  
REMARK   13  A    between atoms: CB   and  CG  
ROOT
ATOM     27  CA  HIS A  38     -10.959   4.941   1.621  1.00 16.94     0.182 C 
ENDROOT
BRANCH  27  28
ATOM     28  CB  HIS A  38     -11.810   4.840   2.881  1.00 15.47     0.095 C 
BRANCH  28  29
ATOM     29  CG  HIS A  38     -13.013   3.967   2.728  1.00 18.62     0.053 A 
ATOM     30  CD2 HIS A  38     -14.189   4.178   2.089  1.00 15.06     0.116 A 
ATOM     31  NE2 HIS A  38     -14.935   3.036   2.234  1.00 18.12    -0.359 N 
ATOM     32  CE1 HIS A  38     -14.246   2.157   2.935  1.00 14.78     0.207 A 
ATOM     33  H06 HIS A  38     -15.863   2.892   1.862  1.00 18.12     0.166 HD
ATOM     34  ND1 HIS A  38     -13.083   2.693   3.248  1.00 16.58    -0.247 NA
ENDBRANCH  28  29
ENDBRANCH  27  28
END_RES HIS A  38
BEGIN_RES TRP A  63
REMARK  2 active torsions:
REMARK  status: ('A' for Active; 'I' for Inactive)
REMARK   14  A    between atoms: CA   and  CB  
REMARK   15  A    between atoms: CB   and  CG  
ROOT
ATOM     35  CA  TRP A  63     -22.437   6.257   6.543  1.00 27.04     0.181 C 
ENDROOT
BRANCH  35  36
ATOM     36  CB  TRP A  63     -22.360   6.642   5.068  1.00 31.37     0.075 C 
BRANCH  36  37
ATOM     37  CG  TRP A  63     -20.954   6.718   4.510  1.00 34.37    -0.028 A 
ATOM     38  CD2 TRP A  63     -19.896   5.767   4.692  1.00 33.79    -0.002 A 
ATOM     39  CE3 TRP A  63     -19.769   4.581   5.418  1.00 32.99     0.014 A 
ATOM     40  CE2 TRP A  63     -18.795   6.219   3.932  1.00 35.84     0.042 A 
ATOM     41  CZ3 TRP A  63     -18.565   3.893   5.366  1.00 32.93     0.001 A 
ATOM     42  CH2 TRP A  63     -17.488   4.368   4.601  1.00 39.24     0.002 A 
ATOM     43  CZ2 TRP A  63     -17.584   5.527   3.878  1.00 37.99     0.030 A 
ATOM     44  NE1 TRP A  63     -19.170   7.385   3.323  1.00 37.98    -0.365 N 
ATOM     45  H06 TRP A  63     -18.589   7.942   2.713  1.00 37.98     0.165 HD
ATOM     46  CD1 TRP A  63     -20.465   7.676   3.678  1.00 38.16     0.096 A 
ENDBRANCH  36  37
ENDBRANCH  35  36
END_RES TRP A  63
BEGIN_RES LEU A  66
REMARK  2 active torsions:
REMARK  status: ('A' for Active; 'I' for Inactive)
REMARK   16  A    between atoms: CA   and  CB  
REMARK   17  A    between atoms: CB   and  CG  
ROOT
ATOM     47  CA  LEU A  66     -20.004   6.489  11.120  1.00 10.90     0.177 C 
ENDROOT
BRANCH  47  48
ATOM     48  CB  LEU A  66     -19.626   5.453  10.069  1.00 13.57     0.038 C 
BRANCH  48  49
ATOM     49  CG  LEU A  66     -19.560   3.994  10.517  1.00  8.73    -0.020 C 
ATOM     50  CD1 LEU A  66     -19.469   3.903  12.018  1.00 14.23     0.009 C 
ATOM     51  CD2 LEU A  66     -20.800   3.288  10.031  1.00  1.92     0.009 C 
ENDBRANCH  48  49
ENDBRANCH  47  48
END_RES LEU A  66
BEGIN_RES PHE A  70
REMARK  2 active torsions:
REMARK  status: ('A' for Active; 'I' for Inactive)
REMARK   18  A    between atoms: CA   and  CB  
REMARK   19  A    between atoms: CB   and  CG  
ROOT
ATOM     52  CA  PHE A  70     -14.974   9.434  13.165  1.00  8.78     0.180 C 
ENDROOT
BRANCH  52  53
ATOM     53  CB  PHE A  70     -14.707   9.132  11.681  1.00  6.33     0.073 C 
BRANCH  53  54
ATOM     54  CG  PHE A  70     -13.937   7.859  11.459  1.00  3.42    -0.056 A 
ATOM     55  CD1 PHE A  70     -13.523   7.077  12.527  1.00 13.88     0.007 A 
ATOM     56  CE1 PHE A  70     -12.763   5.914  12.314  1.00 12.71     0.001 A 
ATOM     57  CZ  PHE A  70     -12.416   5.529  11.019  1.00  4.21     0.000 A 
ATOM     58  CE2 PHE A  70     -12.825   6.299   9.946  1.00  2.83     0.001 A 
ATOM     59  CD2 PHE A  70     -13.584   7.460  10.169  1.00  1.00     0.007 A 
ENDBRANCH  53  54
ENDBRANCH  52  53
END_RES PHE A  70
BEGIN_RES TYR A  73
REMARK  3 active torsions:
REMARK  status: ('A' for Active; 'I' for Inactive)
REMARK   20  A    between atoms: CA   and  CB  
REMARK   21  A    between atoms: CB   and  CG  
REMARK   22  A    between atoms: CZ   and  OH  
ROOT
ATOM     60  CA  TYR A  73     -13.212  10.166  17.260  1.00 12.17     0.180 C 
ENDROOT
BRANCH  60  61
ATOM     61  CB  TYR A  73     -13.301   8.846  16.517  1.00 12.84     0.073 C 
BRANCH  61  62
ATOM     62  CG  TYR A  73     -13.448   7.675  17.424  1.00 15.89    -0.056 A 
ATOM     63  CD1 TYR A  73     -13.390   7.823  18.792  1.00 16.00     0.010 A 
ATOM     64  CE1 TYR A  73     -13.497   6.723  19.643  1.00 13.55     0.037 A 
ATOM     65  CZ  TYR A  73     -13.662   5.463  19.103  1.00 18.13     0.065 A 
ATOM     66  CE2 TYR A  73     -13.723   5.288  17.740  1.00 15.89     0.037 A 
ATOM     67  CD2 TYR A  73     -13.616   6.395  16.907  1.00 21.86     0.010 A 
BRANCH  65  68
ATOM     68  OH  TYR A  73     -13.774   4.367  19.922  1.00 12.12    -0.361 OA
ATOM     69  H08 TYR A  73     -14.675   4.036  19.893  1.00 12.12     0.217 HD
ENDBRANCH  65  68
ENDBRANCH  61  62
ENDBRANCH  60  61
END_RES TYR A  73
BEGIN_RES PHE A  77
REMARK  2 active torsions:
REMARK  status: ('A' for Active; 'I' for Inactive)
REMARK   23  A    between atoms: CA   and  CB  
REMARK   24  A    between atoms: CB   and  CG  
ROOT
ATOM     70  CA  PHE A  77      -8.400  10.581  20.110  1.00 17.17     0.180 C 
ENDROOT
BRANCH  70  71
ATOM     71  CB  PHE A  77      -8.228   9.750  18.851  1.00 10.44     0.073 C 
BRANCH  71  72
ATOM     72  CG  PHE A  77      -8.858   8.395  18.932  1.00  6.07    -0.056 A 
ATOM     73  CD2 PHE A  77      -9.332   7.775  17.799  1.00  9.61     0.007 A 
ATOM     74  CE2 PHE A  77      -9.917   6.516  17.864  1.00  1.00     0.001 A 
ATOM     75  CZ  PHE A  77     -10.027   5.867  19.083  1.00  1.92     0.000 A 
ATOM     76  CE1 PHE A  77      -9.557   6.473  20.226  1.00  9.25     0.001 A 
ATOM     77  CD1 PHE A  77      -8.973   7.738  20.146  1.00  9.63     0.007 A 
ENDBRANCH  71  72
ENDBRANCH  70  71
END_RES PHE A  77
BEGIN_RES LEU A  96
REMARK  2 active torsions:
REMARK  status: ('A' for Active; 'I' for Inactive)
REMARK   25  A    between atoms: CA   and  CB  
REMARK   26  A    between atoms: CB   and  CG  
ROOT
ATOM     78  CA  LEU A  96       0.717   6.481  17.359  1.00 16.08     0.177 C 
ENDROOT
BRANCH  78  79
ATOM     79  CB  LEU A  96      -0.370   7.101  18.230  1.00 18.83     0.038 C 
BRANCH  79  80
ATOM     80  CG  LEU A  96      -0.140   6.953  19.734  1.00 19.03    -0.020 C 
ATOM     81  CD1 LEU A  96       0.591   8.175  20.238  1.00 28.17     0.009 C 
ATOM     82  CD2 LEU A  96      -1.460   6.850  20.462  1.00 22.01     0.009 C 
ENDBRANCH  79  80
ENDBRANCH  78  79
END_RES LEU A  96
BEGIN_RES VAL A  98
REMARK  1 active torsions:
REMARK  status: ('A' for Active; 'I' for Inactive)
REMARK   27  A    between atoms: CA   and  CB  
ROOT
ATOM     83  CA  VAL A  98      -3.928   2.082  14.897  1.00 19.83     0.180 C 
ENDROOT
BRANCH  83  84
ATOM     84  CB  VAL A  98      -5.203   2.807  15.281  1.00 17.87     0.009 C 
ATOM     85  CG2 VAL A  98      -4.917   4.268  15.512  1.00 29.90     0.012 C 
ATOM     86  CG1 VAL A  98      -5.792   2.172  16.523  1.00 14.79     0.012 C 
ENDBRANCH  83  84
END_RES VAL A  98
BEGIN_RES ASN A 112
REMARK  2 active torsions:
REMARK  status: ('A' for Active; 'I' for Inactive)
REMARK   28  A    between atoms: CA   and  CB  
REMARK   29  A    between atoms: CB   and  CG  
REMARK       I    between atoms: CG   and  ND2 
ROOT
ATOM     87  CA  ASN A 112     -11.790  -8.793  14.069  1.00 37.70     0.185 C 
ENDROOT
BRANCH  87  88
ATOM     88  CB  ASN A 112     -12.992  -7.945  14.465  1.00 26.24     0.137 C 
BRANCH  88  89
ATOM     89  CG  ASN A 112     -13.950  -8.668  15.385  1.00 21.77     0.217 C 
ATOM     90  ND2 ASN A 112     -13.674  -8.606  16.688  1.00  9.31    -0.370 N 
ATOM     91  H04 ASN A 112     -14.275  -9.071  17.354  1.00  9.31     0.159 HD
ATOM     92  H05 ASN A 112     -12.864  -8.095  17.008  1.00  9.31     0.159 HD
ATOM     93  OD1 ASN A 112     -14.925  -9.280  14.934  1.00 21.61    -0.274 OA
ENDBRANCH  88  89
ENDBRANCH  87  88
END_RES ASN A 112
BEGIN_RES PHE A 114
REMARK  2 active torsions:
REMARK  status: ('A' for Active; 'I' for Inactive)
REMARK   30  A    between atoms: CA   and  CB  
REMARK   31  A    between atoms: CB   and  CG  
ROOT
ATOM     94  CA  PHE A 114      -7.754  -3.619  17.012  1.00 26.06     0.180 C 
ENDROOT
BRANCH  94  95
ATOM     95  CB  PHE A 114      -8.890  -3.080  17.867  1.00 19.95     0.073 C 
BRANCH  95  96
ATOM     96  CG  PHE A 114      -9.220  -1.651  17.580  1.00 17.65    -0.056 A 
ATOM     97  CD1 PHE A 114      -8.214  -0.695  17.473  1.00 13.01     0.007 A 
ATOM     98  CE1 PHE A 114      -8.522   0.638  17.236  1.00  6.74     0.001 A 
ATOM     99  CZ  PHE A 114      -9.850   1.034  17.099  1.00  6.27     0.000 A 
ATOM    100  CE2 PHE A 114     -10.859   0.091  17.204  1.00 17.36     0.001 A 
ATOM    101  CD2 PHE A 114     -10.542  -1.250  17.444  1.00 18.39     0.007 A 
ENDBRANCH  95  96
ENDBRANCH  94  95
END_RES PHE A 114
BEGIN_RES VAL A 116
REMARK  1 active torsions:
REMARK  status: ('A' for Active; 'I' for Inactive)
REMARK   32  A    between atoms: CA   and  CB  
ROOT
ATOM    102  CA  VAL A 116      -2.467   0.283  18.565  1.00 13.48     0.180 C 
ENDROOT
BRANCH 102 103
ATOM    103  CB  VAL A 116      -3.101   1.238  19.599  1.00 20.86     0.009 C 
ATOM    104  CG1 VAL A 116      -3.048   2.674  19.070  1.00 25.01     0.012 C 
ATOM    105  CG2 VAL A 116      -4.515   0.817  19.925  1.00 25.34     0.012 C 
ENDBRANCH 102 103
END_RES VAL A 116
BEGIN_RES ILE A 123
REMARK  2 active torsions:
REMARK  status: ('A' for Active; 'I' for Inactive)
REMARK   33  A    between atoms: CA   and  CB  
REMARK   34  A    between atoms: CB   and  CG1 
ROOT
ATOM    106  CA  ILE A 123       1.557  -1.626  23.222  1.00 15.07     0.180 C 
ENDROOT
BRANCH 106 107
ATOM    107  CB  ILE A 123       1.697  -0.112  23.461  1.00 14.41     0.013 C 
ATOM    108  CG2 ILE A 123       3.093   0.204  23.969  1.00 18.35     0.012 C 
BRANCH 107 109
ATOM    109  CG1 ILE A 123       1.418   0.656  22.172  1.00 15.23     0.002 C 
ATOM    110  CD1 ILE A 123       0.217   1.566  22.256  1.00 14.67     0.005 C 
ENDBRANCH 107 109
ENDBRANCH 106 107
END_RES ILE A 123
BEGIN_RES LEU A 124
REMARK  2 active torsions:
REMARK  status: ('A' for Active; 'I' for Inactive)
REMARK   35  A    between atoms: CA   and  CB  
REMARK   36  A    between atoms: CB   and  CG  
ROOT
ATOM    111  CA  LEU A 124      -2.057  -2.686  23.524  1.00 11.86     0.177 C 
ENDROOT
BRANCH 111 112
ATOM    112  CB  LEU A 124      -2.698  -1.652  24.429  1.00 14.60     0.038 C 
BRANCH 112 113
ATOM    113  CG  LEU A 124      -2.635  -0.254  23.833  1.00 16.19    -0.020 C 
ATOM    114  CD1 LEU A 124      -4.061   0.198  23.462  1.00 22.07     0.009 C 
ATOM    115  CD2 LEU A 124      -1.987   0.685  24.820  1.00  9.12     0.009 C 
ENDBRANCH 112 113
ENDBRANCH 111 112
END_RES LEU A 124
BEGIN_RES PHE A 126
REMARK  2 active torsions:
REMARK  status: ('A' for Active; 'I' for Inactive)
REMARK   37  A    between atoms: CA   and  CB  
REMARK   38  A    between atoms: CB   and  CG  
ROOT
ATOM    116  CA  PHE A 126      -8.784  -4.792  22.233  1.00 23.15     0.180 C 
ENDROOT
BRANCH 116 117
ATOM    117  CB  PHE A 126      -9.823  -4.011  21.461  1.00 20.65     0.073 C 
BRANCH 117 118
ATOM    118  CG  PHE A 126     -10.949  -3.543  22.297  1.00 23.65    -0.056 A 
ATOM    119  CD2 PHE A 126     -10.765  -2.539  23.232  1.00 36.63     0.007 A 
ATOM    120  CE2 PHE A 126     -11.834  -2.095  24.022  1.00 36.27     0.001 A 
ATOM    121  CZ  PHE A 126     -13.090  -2.664  23.870  1.00 18.06     0.000 A 
ATOM    122  CE1 PHE A 126     -13.278  -3.664  22.937  1.00  5.50     0.001 A 
ATOM    123  CD1 PHE A 126     -12.209  -4.098  22.152  1.00 15.29     0.007 A 
ENDBRANCH 117 118
ENDBRANCH 116 117
END_RES PHE A 126
BEGIN_RES TRP A 131
REMARK  2 active torsions:
REMARK  status: ('A' for Active; 'I' for Inactive)
REMARK   39  A    between atoms: CA   and  CB  
REMARK   40  A    between atoms: CB   and  CG  
ROOT
ATOM    124  CA  TRP A 131      -8.096  -3.335  26.542  1.00 14.52     0.181 C 
ENDROOT
BRANCH 124 125
ATOM    125  CB  TRP A 131      -7.651  -1.877  26.607  1.00 13.06     0.075 C 
BRANCH 125 126
ATOM    126  CG  TRP A 131      -8.047  -1.052  25.402  1.00 16.97    -0.028 A 
ATOM    127  CD2 TRP A 131      -9.118  -0.108  25.331  1.00 11.34    -0.002 A 
ATOM    128  CE2 TRP A 131      -9.122   0.430  24.029  1.00  5.87     0.042 A 
ATOM    129  CE3 TRP A 131     -10.078   0.334  26.248  1.00  3.80     0.014 A 
ATOM    130  CZ2 TRP A 131     -10.048   1.391  23.621  1.00  1.35     0.030 A 
ATOM    131  NE1 TRP A 131      -8.101  -0.161  23.337  1.00 13.90    -0.365 N 
ATOM    132  CH2 TRP A 131     -10.978   1.808  24.541  1.00  1.00     0.002 A 
ATOM    133  CZ3 TRP A 131     -11.000   1.285  25.848  1.00  1.00     0.001 A 
ATOM    134  CD1 TRP A 131      -7.458  -1.050  24.167  1.00 17.22     0.096 A 
ATOM    135  H07 TRP A 131      -7.858   0.025  22.375  1.00 13.90     0.165 HD
ENDBRANCH 125 126
ENDBRANCH 124 125
END_RES TRP A 131
BEGIN_RES LEU A 148
REMARK  2 active torsions:
REMARK  status: ('A' for Active; 'I' for Inactive)
REMARK   41  A    between atoms: CA   and  CB  
REMARK   42  A    between atoms: CB   and  CG  
ROOT
ATOM    136  CA  LEU A 148      -9.018   3.259  29.295  1.00 16.99     0.177 C 
ENDROOT
BRANCH 136 137
ATOM    137  CB  LEU A 148      -8.166   2.574  28.236  1.00  6.39     0.038 C 
BRANCH 137 138
ATOM    138  CG  LEU A 148      -7.319   3.380  27.272  1.00  1.00    -0.020 C 
ATOM    139  CD2 LEU A 148      -8.099   3.690  26.028  1.00  1.00     0.009 C 
ATOM    140  CD1 LEU A 148      -6.080   2.570  26.937  1.00  2.71     0.009 C 
ENDBRANCH 137 138
ENDBRANCH 136 137
END_RES LEU A 148
BEGIN_RES THR A 154
REMARK  2 active torsions:
REMARK  status: ('A' for Active; 'I' for Inactive)
REMARK   43  A    between atoms: CA   and  CB  
REMARK   44  A    between atoms: CB   and  OG1 
ROOT
ATOM    141  CA  THR A 154     -15.990   3.959  24.426  1.00 20.45     0.205 C 
ENDROOT
BRANCH 141 142
ATOM    142  CB  THR A 154     -14.777   4.829  24.694  1.00 16.79     0.146 C 
ATOM    143  CG2 THR A 154     -13.675   4.511  23.701  1.00 20.24     0.042 C 
BRANCH 142 144
ATOM    144  OG1 THR A 154     -15.150   6.205  24.546  1.00 18.84    -0.393 OA
ATOM    145  H06 THR A 154     -14.429   6.691  24.142  1.00 18.84     0.210 HD
ENDBRANCH 142 144
ENDBRANCH 141 142
END_RES THR A 154
BEGIN_RES VAL A 158
REMARK  1 active torsions:
REMARK  status: ('A' for Active; 'I' for Inactive)
REMARK   45  A    between atoms: CA   and  CB  
ROOT
ATOM    146  CA  VAL A 158     -15.487  -0.189  19.892  1.00 15.49     0.180 C 
ENDROOT
BRANCH 146 147
ATOM    147  CB  VAL A 158     -14.291  -0.273  20.822  1.00  6.52     0.009 C 
ATOM    148  CG1 VAL A 158     -13.240  -1.206  20.266  1.00  1.00     0.012 C 
ATOM    149  CG2 VAL A 158     -13.731   1.103  21.010  1.00  5.99     0.012 C 
ENDBRANCH 146 147
END_RES VAL A 158
BEGIN_RES LEU A 161
REMARK  2 active torsions:
REMARK  status: ('A' for Active; 'I' for Inactive)
REMARK   46  A    between atoms: CA   and  CB  
REMARK   47  A    between atoms: CB   and  CG  
ROOT
ATOM    150  CA  LEU A 161     -18.031  -1.858  15.935  1.00 13.31     0.177 C 
ENDROOT
BRANCH 150 151
ATOM    151  CB  LEU A 161     -17.046  -0.706  16.001  1.00 14.13     0.038 C 
BRANCH 151 152
ATOM    152  CG  LEU A 161     -17.357   0.499  15.122  1.00 19.39    -0.020 C 
ATOM    153  CD2 LEU A 161     -16.534   1.688  15.555  1.00 27.75     0.009 C 
ATOM    154  CD1 LEU A 161     -18.823   0.818  15.234  1.00 18.59     0.009 C 
ENDBRANCH 151 152
ENDBRANCH 150 151
END_RES LEU A 161
BEGIN_RES GLN A 168
REMARK  3 active torsions:
REMARK  status: ('A' for Active; 'I' for Inactive)
REMARK   48  A    between atoms: CA   and  CB  
REMARK   49  A    between atoms: CB   and  CG  
REMARK   50  A    between atoms: CG   and  CD  
REMARK       I    between atoms: CD   and  NE2 
ROOT
ATOM    155  CA  GLN A 168     -22.035  -6.020   8.155  1.00 30.94     0.177 C 
ENDROOT
BRANCH 155 156
ATOM    156  CB  GLN A 168     -23.054  -5.218   8.946  1.00 41.76     0.044 C 
BRANCH 156 157
ATOM    157  CG  GLN A 168     -24.464  -5.736   8.853  1.00 61.20     0.105 C 
BRANCH 157 158
ATOM    158  CD  GLN A 168     -25.066  -5.493   7.483  1.00 75.49     0.215 C 
ATOM    159  NE2 GLN A 168     -25.095  -4.226   7.067  1.00 85.00    -0.370 N 
ATOM    160  H06 GLN A 168     -25.486  -3.999   6.164  1.00 85.00     0.159 HD
ATOM    161  H07 GLN A 168     -24.725  -3.493   7.656  1.00 85.00     0.159 HD
ATOM    162  OE1 GLN A 168     -25.508  -6.431   6.804  1.00 73.64    -0.274 OA
ENDBRANCH 157 158
ENDBRANCH 156 157
ENDBRANCH 155 156
END_RES GLN A 168
ENDMDL
