MODEL 1
REMARK VINA RESULT:      -6.9      0.000      0.000
REMARK  Name = human_CD1d_tritonX_pred.rank_0
REMARK  32 active torsions:
REMARK  status: ('A' for Active; 'I' for Inactive)
REMARK    1  A    between atoms: O_2  and  C_21
REMARK    2  A    between atoms: O_2  and  C_23
REMARK    3  A    between atoms: C_3  and  C_5
REMARK    4  A    between atoms: C_3  and  C_15
REMARK    5  A    between atoms: O_4  and  C_24
REMARK    6  A    between atoms: O_4  and  C_25
REMARK    7  A    between atoms: O_6  and  C_26
REMARK    8  A    between atoms: O_6  and  C_27
REMARK    9  A    between atoms: O_8  and  C_28
REMARK   10  A    between atoms: O_8  and  C_29
REMARK   11  A    between atoms: O_10  and  C_30
REMARK   12  A    between atoms: O_10  and  C_31
REMARK   13  A    between atoms: O_12  and  C_32
REMARK   14  A    between atoms: O_12  and  C_33
REMARK   15  A    between atoms: O_14  and  C_34
REMARK   16  A    between atoms: O_14  and  C_35
REMARK   17  A    between atoms: O_16  and  C_36
REMARK   18  A    between atoms: O_16  and  C_37
REMARK   19  A    between atoms: O_18  and  C_38
REMARK   20  A    between atoms: O_18  and  C_39
REMARK   21  A    between atoms: O_20  and  C_40
REMARK   22  A    between atoms: O_20  and  C_41
REMARK   23  A    between atoms: C_23  and  C_24
REMARK   24  A    between atoms: C_25  and  C_26
REMARK   25  A    between atoms: C_27  and  C_28
REMARK   26  A    between atoms: C_29  and  C_30
REMARK   27  A    between atoms: C_31  and  C_32
REMARK   28  A    between atoms: C_33  and  C_34
REMARK   29  A    between atoms: C_35  and  C_36
REMARK   30  A    between atoms: C_37  and  C_38
REMARK   31  A    between atoms: C_39  and  C_40
REMARK   32  A    between atoms: C_41  and  C_42
REMARK                            x       y       z     vdW  Elec       q    Type
REMARK                         _______ _______ _______ _____ _____    ______ ____
ROOT
ATOM      1  O   UNL     1     -12.673   7.910  21.802  0.00  0.00    +0.000 OA
ENDROOT
BRANCH   1   2
ATOM      2  C   UNL     1     -11.479   8.458  21.227  0.00  0.00    +0.000 C 
BRANCH   2   3
ATOM      3  C   UNL     1     -10.292   7.569  21.577  0.00  0.00    +0.000 C 
BRANCH   3   4
ATOM      4  O   UNL     1     -10.553   6.726  22.678  0.00  0.00    +0.000 OA
BRANCH   4   5
ATOM      5  C   UNL     1      -9.939   5.448  22.689  0.00  0.00    +0.000 C 
BRANCH   5   6
ATOM      6  C   UNL     1      -9.355   5.088  21.327  0.00  0.00    +0.000 C 
BRANCH   6   7
ATOM      7  O   UNL     1      -8.042   4.561  21.490  0.00  0.00    +0.000 OA
BRANCH   7   8
ATOM      8  C   UNL     1      -7.395   4.889  22.734  0.00  0.00    +0.000 C 
BRANCH   8   9
ATOM      9  C   UNL     1      -6.447   3.761  23.138  0.00  0.00    +0.000 C 
BRANCH   9  10
ATOM     10  O   UNL     1      -5.229   3.808  22.380  0.00  0.00    +0.000 OA
BRANCH  10  14
ATOM     11  C   UNL     1      -1.847   5.266  24.232  0.00  0.00    +0.000 A 
ATOM     12  C   UNL     1      -3.037   4.994  24.936  0.00  0.00    +0.000 A 
ATOM     13  C   UNL     1      -4.152   4.519  24.316  0.00  0.00    +0.000 A 
ATOM     14  C   UNL     1      -4.078   4.254  22.973  0.00  0.00    +0.000 A 
ATOM     15  C   UNL     1      -2.948   4.488  22.249  0.00  0.00    +0.000 A 
ATOM     16  C   UNL     1      -1.832   4.975  22.848  0.00  0.00    +0.000 A 
BRANCH  11  18
ATOM     17  C   UNL     1      -0.690   5.556  26.372  0.00  0.00    +0.000 C 
ATOM     18  C   UNL     1      -0.604   5.817  24.885  0.00  0.00    +0.000 C 
ATOM     19  C   UNL     1       0.547   5.044  24.317  0.00  0.00    +0.000 C 
BRANCH  18  20
ATOM     20  C   UNL     1      -0.362   7.319  24.611  0.00  0.00    +0.000 C 
ATOM     21  C   UNL     1      -1.676   8.012  24.295  0.00  0.00    +0.000 C 
ATOM     22  C   UNL     1       0.529   7.524  23.438  0.00  0.00    +0.000 C 
ATOM     23  C   UNL     1       0.217   7.999  25.825  0.00  0.00    +0.000 C 
ENDBRANCH  18  20
ENDBRANCH  11  18
ENDBRANCH  10  14
ENDBRANCH   9  10
ENDBRANCH   8   9
ENDBRANCH   7   8
ENDBRANCH   6   7
ENDBRANCH   5   6
ENDBRANCH   4   5
ENDBRANCH   3   4
ENDBRANCH   2   3
ENDBRANCH   1   2
BRANCH   1  24
ATOM     24  C   UNL     1     -13.359   8.855  22.655  0.00  0.00    +0.000 C 
BRANCH  24  25
ATOM     25  C   UNL     1     -14.857   8.773  22.468  0.00  0.00    +0.000 C 
BRANCH  25  26
ATOM     26  O   UNL     1     -15.336   9.907  21.733  0.00  0.00    +0.000 OA
BRANCH  26  27
ATOM     27  C   UNL     1     -15.667   9.593  20.387  0.00  0.00    +0.000 C 
BRANCH  27  28
ATOM     28  C   UNL     1     -16.860   8.654  20.306  0.00  0.00    +0.000 C 
BRANCH  28  29
ATOM     29  O   UNL     1     -16.777   7.810  19.160  0.00  0.00    +0.000 OA
BRANCH  29  30
ATOM     30  C   UNL     1     -15.497   7.369  18.834  0.00  0.00    +0.000 C 
BRANCH  30  31
ATOM     31  C   UNL     1     -15.248   5.974  19.354  0.00  0.00    +0.000 C 
BRANCH  31  32
ATOM     32  O   UNL     1     -14.249   5.298  18.617  0.00  0.00    +0.000 OA
BRANCH  32  33
ATOM     33  C   UNL     1     -14.717   4.540  17.502  0.00  0.00    +0.000 C 
BRANCH  33  34
ATOM     34  C   UNL     1     -14.016   4.973  16.240  0.00  0.00    +0.000 C 
BRANCH  34  35
ATOM     35  O   UNL     1     -12.712   4.450  16.160  0.00  0.00    +0.000 OA
BRANCH  35  36
ATOM     36  C   UNL     1     -12.608   3.073  16.313  0.00  0.00    +0.000 C 
BRANCH  36  37
ATOM     37  C   UNL     1     -12.721   2.386  14.971  0.00  0.00    +0.000 C 
BRANCH  37  38
ATOM     38  O   UNL     1     -11.668   2.804  14.074  0.00  0.00    +0.000 OA
BRANCH  38  39
ATOM     39  C   UNL     1     -10.356   2.544  14.577  0.00  0.00    +0.000 C 
BRANCH  39  40
ATOM     40  C   UNL     1      -9.405   3.684  14.294  0.00  0.00    +0.000 C 
BRANCH  40  41
ATOM     41  O   UNL     1      -8.401   3.340  13.350  0.00  0.00    +0.000 OA
BRANCH  41  42
ATOM     42  C   UNL     1      -8.711   3.711  12.006  0.00  0.00    +0.000 C 
BRANCH  42  44
ATOM     43  O   UNL     1      -8.652   5.688  10.671  0.00  0.00    +0.000 OA
ATOM     44  C   UNL     1      -9.072   5.181  11.913  0.00  0.00    +0.000 C 
ENDBRANCH  42  44
ENDBRANCH  41  42
ENDBRANCH  40  41
ENDBRANCH  39  40
ENDBRANCH  38  39
ENDBRANCH  37  38
ENDBRANCH  36  37
ENDBRANCH  35  36
ENDBRANCH  34  35
ENDBRANCH  33  34
ENDBRANCH  32  33
ENDBRANCH  31  32
ENDBRANCH  30  31
ENDBRANCH  29  30
ENDBRANCH  28  29
ENDBRANCH  27  28
ENDBRANCH  26  27
ENDBRANCH  25  26
ENDBRANCH  24  25
ENDBRANCH   1  24
TORSDOF 32
ENDMDL
MODEL 2
REMARK VINA RESULT:      -6.8      1.734      2.946
REMARK  Name = human_CD1d_tritonX_pred.rank_0
REMARK  32 active torsions:
REMARK  status: ('A' for Active; 'I' for Inactive)
REMARK    1  A    between atoms: O_2  and  C_21
REMARK    2  A    between atoms: O_2  and  C_23
REMARK    3  A    between atoms: C_3  and  C_5
REMARK    4  A    between atoms: C_3  and  C_15
REMARK    5  A    between atoms: O_4  and  C_24
REMARK    6  A    between atoms: O_4  and  C_25
REMARK    7  A    between atoms: O_6  and  C_26
REMARK    8  A    between atoms: O_6  and  C_27
REMARK    9  A    between atoms: O_8  and  C_28
REMARK   10  A    between atoms: O_8  and  C_29
REMARK   11  A    between atoms: O_10  and  C_30
REMARK   12  A    between atoms: O_10  and  C_31
REMARK   13  A    between atoms: O_12  and  C_32
REMARK   14  A    between atoms: O_12  and  C_33
REMARK   15  A    between atoms: O_14  and  C_34
REMARK   16  A    between atoms: O_14  and  C_35
REMARK   17  A    between atoms: O_16  and  C_36
REMARK   18  A    between atoms: O_16  and  C_37
REMARK   19  A    between atoms: O_18  and  C_38
REMARK   20  A    between atoms: O_18  and  C_39
REMARK   21  A    between atoms: O_20  and  C_40
REMARK   22  A    between atoms: O_20  and  C_41
REMARK   23  A    between atoms: C_23  and  C_24
REMARK   24  A    between atoms: C_25  and  C_26
REMARK   25  A    between atoms: C_27  and  C_28
REMARK   26  A    between atoms: C_29  and  C_30
REMARK   27  A    between atoms: C_31  and  C_32
REMARK   28  A    between atoms: C_33  and  C_34
REMARK   29  A    between atoms: C_35  and  C_36
REMARK   30  A    between atoms: C_37  and  C_38
REMARK   31  A    between atoms: C_39  and  C_40
REMARK   32  A    between atoms: C_41  and  C_42
REMARK                            x       y       z     vdW  Elec       q    Type
REMARK                         _______ _______ _______ _____ _____    ______ ____
ROOT
ATOM      1  O   UNL     1     -13.345   8.778  21.476  0.00  0.00    +0.000 OA
ENDROOT
BRANCH   1   2
ATOM      2  C   UNL     1     -12.394   8.211  22.386  0.00  0.00    +0.000 C 
BRANCH   2   3
ATOM      3  C   UNL     1     -11.014   8.204  21.741  0.00  0.00    +0.000 C 
BRANCH   3   4
ATOM      4  O   UNL     1     -10.340   6.977  21.918  0.00  0.00    +0.000 OA
BRANCH   4   5
ATOM      5  C   UNL     1      -8.933   7.016  22.083  0.00  0.00    +0.000 C 
BRANCH   5   6
ATOM      6  C   UNL     1      -8.463   6.067  23.180  0.00  0.00    +0.000 C 
BRANCH   6   7
ATOM      7  O   UNL     1      -8.844   4.733  22.861  0.00  0.00    +0.000 OA
BRANCH   7   8
ATOM      8  C   UNL     1      -7.884   3.984  22.092  0.00  0.00    +0.000 C 
BRANCH   8   9
ATOM      9  C   UNL     1      -6.666   3.662  22.957  0.00  0.00    +0.000 C 
BRANCH   9  10
ATOM     10  O   UNL     1      -5.443   3.886  22.239  0.00  0.00    +0.000 OA
BRANCH  10  14
ATOM     11  C   UNL     1      -2.048   5.211  24.164  0.00  0.00    +0.000 A 
ATOM     12  C   UNL     1      -2.128   5.102  22.762  0.00  0.00    +0.000 A 
ATOM     13  C   UNL     1      -3.250   4.657  22.133  0.00  0.00    +0.000 A 
ATOM     14  C   UNL     1      -4.344   4.360  22.904  0.00  0.00    +0.000 A 
ATOM     15  C   UNL     1      -4.323   4.461  24.263  0.00  0.00    +0.000 A 
ATOM     16  C   UNL     1      -3.208   4.889  24.907  0.00  0.00    +0.000 A 
BRANCH  11  18
ATOM     17  C   UNL     1      -1.021   5.462  26.375  0.00  0.00    +0.000 C 
ATOM     18  C   UNL     1      -0.810   5.675  24.892  0.00  0.00    +0.000 C 
ATOM     19  C   UNL     1       0.308   4.794  24.424  0.00  0.00    +0.000 C 
BRANCH  18  20
ATOM     20  C   UNL     1      -0.425   7.144  24.605  0.00  0.00    +0.000 C 
ATOM     21  C   UNL     1       0.281   7.745  25.809  0.00  0.00    +0.000 C 
ATOM     22  C   UNL     1      -1.624   7.982  24.343  0.00  0.00    +0.000 C 
ATOM     23  C   UNL     1       0.531   7.231  23.442  0.00  0.00    +0.000 C 
ENDBRANCH  18  20
ENDBRANCH  11  18
ENDBRANCH  10  14
ENDBRANCH   9  10
ENDBRANCH   8   9
ENDBRANCH   7   8
ENDBRANCH   6   7
ENDBRANCH   5   6
ENDBRANCH   4   5
ENDBRANCH   3   4
ENDBRANCH   2   3
ENDBRANCH   1   2
BRANCH   1  24
ATOM     24  C   UNL     1     -14.691   8.767  22.007  0.00  0.00    +0.000 C 
BRANCH  24  25
ATOM     25  C   UNL     1     -15.624   7.977  21.117  0.00  0.00    +0.000 C 
BRANCH  25  26
ATOM     26  O   UNL     1     -16.103   6.810  21.800  0.00  0.00    +0.000 OA
BRANCH  26  27
ATOM     27  C   UNL     1     -15.965   5.624  21.030  0.00  0.00    +0.000 C 
BRANCH  27  28
ATOM     28  C   UNL     1     -14.740   5.674  20.132  0.00  0.00    +0.000 C 
BRANCH  28  29
ATOM     29  O   UNL     1     -14.258   4.364  19.839  0.00  0.00    +0.000 OA
BRANCH  29  30
ATOM     30  C   UNL     1     -13.041   4.312  19.164  0.00  0.00    +0.000 C 
BRANCH  30  31
ATOM     31  C   UNL     1     -13.198   3.683  17.801  0.00  0.00    +0.000 C 
BRANCH  31  32
ATOM     32  O   UNL     1     -11.958   3.519  17.141  0.00  0.00    +0.000 OA
BRANCH  32  33
ATOM     33  C   UNL     1     -12.036   3.018  15.807  0.00  0.00    +0.000 C 
BRANCH  33  34
ATOM     34  C   UNL     1     -10.961   3.636  14.949  0.00  0.00    +0.000 C 
BRANCH  34  35
ATOM     35  O   UNL     1      -9.845   2.789  14.817  0.00  0.00    +0.000 OA
BRANCH  35  36
ATOM     36  C   UNL     1      -9.505   2.446  13.514  0.00  0.00    +0.000 C 
BRANCH  36  37
ATOM     37  C   UNL     1      -8.466   3.402  12.974  0.00  0.00    +0.000 C 
BRANCH  37  38
ATOM     38  O   UNL     1      -8.595   3.569  11.545  0.00  0.00    +0.000 OA
BRANCH  38  39
ATOM     39  C   UNL     1      -9.633   4.477  11.170  0.00  0.00    +0.000 C 
BRANCH  39  40
ATOM     40  C   UNL     1      -9.408   5.056   9.792  0.00  0.00    +0.000 C 
BRANCH  40  41
ATOM     41  O   UNL     1      -9.223   4.057   8.799  0.00  0.00    +0.000 OA
BRANCH  41  42
ATOM     42  C   UNL     1     -10.235   4.040   7.791  0.00  0.00    +0.000 C 
BRANCH  42  44
ATOM     43  O   UNL     1     -12.276   5.154   7.257  0.00  0.00    +0.000 OA
ATOM     44  C   UNL     1     -11.542   4.598   8.320  0.00  0.00    +0.000 C 
ENDBRANCH  42  44
ENDBRANCH  41  42
ENDBRANCH  40  41
ENDBRANCH  39  40
ENDBRANCH  38  39
ENDBRANCH  37  38
ENDBRANCH  36  37
ENDBRANCH  35  36
ENDBRANCH  34  35
ENDBRANCH  33  34
ENDBRANCH  32  33
ENDBRANCH  31  32
ENDBRANCH  30  31
ENDBRANCH  29  30
ENDBRANCH  28  29
ENDBRANCH  27  28
ENDBRANCH  26  27
ENDBRANCH  25  26
ENDBRANCH  24  25
ENDBRANCH   1  24
TORSDOF 32
ENDMDL
MODEL 3
REMARK VINA RESULT:      -6.8      3.834      7.459
REMARK  Name = human_CD1d_tritonX_pred.rank_0
REMARK  32 active torsions:
REMARK  status: ('A' for Active; 'I' for Inactive)
REMARK    1  A    between atoms: O_2  and  C_21
REMARK    2  A    between atoms: O_2  and  C_23
REMARK    3  A    between atoms: C_3  and  C_5
REMARK    4  A    between atoms: C_3  and  C_15
REMARK    5  A    between atoms: O_4  and  C_24
REMARK    6  A    between atoms: O_4  and  C_25
REMARK    7  A    between atoms: O_6  and  C_26
REMARK    8  A    between atoms: O_6  and  C_27
REMARK    9  A    between atoms: O_8  and  C_28
REMARK   10  A    between atoms: O_8  and  C_29
REMARK   11  A    between atoms: O_10  and  C_30
REMARK   12  A    between atoms: O_10  and  C_31
REMARK   13  A    between atoms: O_12  and  C_32
REMARK   14  A    between atoms: O_12  and  C_33
REMARK   15  A    between atoms: O_14  and  C_34
REMARK   16  A    between atoms: O_14  and  C_35
REMARK   17  A    between atoms: O_16  and  C_36
REMARK   18  A    between atoms: O_16  and  C_37
REMARK   19  A    between atoms: O_18  and  C_38
REMARK   20  A    between atoms: O_18  and  C_39
REMARK   21  A    between atoms: O_20  and  C_40
REMARK   22  A    between atoms: O_20  and  C_41
REMARK   23  A    between atoms: C_23  and  C_24
REMARK   24  A    between atoms: C_25  and  C_26
REMARK   25  A    between atoms: C_27  and  C_28
REMARK   26  A    between atoms: C_29  and  C_30
REMARK   27  A    between atoms: C_31  and  C_32
REMARK   28  A    between atoms: C_33  and  C_34
REMARK   29  A    between atoms: C_35  and  C_36
REMARK   30  A    between atoms: C_37  and  C_38
REMARK   31  A    between atoms: C_39  and  C_40
REMARK   32  A    between atoms: C_41  and  C_42
REMARK                            x       y       z     vdW  Elec       q    Type
REMARK                         _______ _______ _______ _____ _____    ______ ____
ROOT
ATOM      1  O   UNL     1     -14.088   5.001  17.782  0.00  0.00    +0.000 OA
ENDROOT
BRANCH   1   2
ATOM      2  C   UNL     1     -15.183   4.640  18.635  0.00  0.00    +0.000 C 
BRANCH   2   3
ATOM      3  C   UNL     1     -14.761   4.781  20.091  0.00  0.00    +0.000 C 
BRANCH   3   4
ATOM      4  O   UNL     1     -15.790   5.303  20.904  0.00  0.00    +0.000 OA
BRANCH   4   5
ATOM      5  C   UNL     1     -15.829   6.708  21.096  0.00  0.00    +0.000 C 
BRANCH   5   6
ATOM      6  C   UNL     1     -14.435   7.324  21.062  0.00  0.00    +0.000 C 
BRANCH   6   7
ATOM      7  O   UNL     1     -14.008   7.627  22.386  0.00  0.00    +0.000 OA
BRANCH   7   8
ATOM      8  C   UNL     1     -13.020   8.669  22.492  0.00  0.00    +0.000 C 
BRANCH   8   9
ATOM      9  C   UNL     1     -11.641   8.113  22.140  0.00  0.00    +0.000 C 
BRANCH   9  10
ATOM     10  O   UNL     1     -11.279   7.028  23.007  0.00  0.00    +0.000 OA
BRANCH  10  14
ATOM     11  C   UNL     1      -8.050   4.608  22.165  0.00  0.00    +0.000 A 
ATOM     12  C   UNL     1      -8.937   4.344  23.228  0.00  0.00    +0.000 A 
ATOM     13  C   UNL     1      -9.997   5.151  23.504  0.00  0.00    +0.000 A 
ATOM     14  C   UNL     1     -10.222   6.222  22.679  0.00  0.00    +0.000 A 
ATOM     15  C   UNL     1      -9.403   6.514  21.630  0.00  0.00    +0.000 A 
ATOM     16  C   UNL     1      -8.333   5.729  21.350  0.00  0.00    +0.000 A 
BRANCH  11  18
ATOM     17  C   UNL     1      -7.040   2.404  22.517  0.00  0.00    +0.000 C 
ATOM     18  C   UNL     1      -6.852   3.748  21.849  0.00  0.00    +0.000 C 
ATOM     19  C   UNL     1      -6.848   3.562  20.363  0.00  0.00    +0.000 C 
BRANCH  18  20
ATOM     20  C   UNL     1      -5.500   4.375  22.264  0.00  0.00    +0.000 C 
ATOM     21  C   UNL     1      -4.546   4.391  21.082  0.00  0.00    +0.000 C 
ATOM     22  C   UNL     1      -4.842   3.589  23.341  0.00  0.00    +0.000 C 
ATOM     23  C   UNL     1      -5.685   5.804  22.705  0.00  0.00    +0.000 C 
ENDBRANCH  18  20
ENDBRANCH  11  18
ENDBRANCH  10  14
ENDBRANCH   9  10
ENDBRANCH   8   9
ENDBRANCH   7   8
ENDBRANCH   6   7
ENDBRANCH   5   6
ENDBRANCH   4   5
ENDBRANCH   3   4
ENDBRANCH   2   3
ENDBRANCH   1   2
BRANCH   1  24
ATOM     24  C   UNL     1     -13.208   3.885  17.512  0.00  0.00    +0.000 C 
BRANCH  24  25
ATOM     25  C   UNL     1     -12.869   3.799  16.041  0.00  0.00    +0.000 C 
BRANCH  25  26
ATOM     26  O   UNL     1     -12.594   2.442  15.666  0.00  0.00    +0.000 OA
BRANCH  26  27
ATOM     27  C   UNL     1     -12.008   2.333  14.377  0.00  0.00    +0.000 C 
BRANCH  27  28
ATOM     28  C   UNL     1     -12.534   1.123  13.620  0.00  0.00    +0.000 C 
BRANCH  28  29
ATOM     29  O   UNL     1     -13.855   0.786  14.037  0.00  0.00    +0.000 OA
BRANCH  29  30
ATOM     30  C   UNL     1     -14.766   0.554  13.009  0.00  0.00    +0.000 C 
BRANCH  30  31
ATOM     31  C   UNL     1     -15.075  -0.917  12.873  0.00  0.00    +0.000 C 
BRANCH  31  32
ATOM     32  O   UNL     1     -16.326  -1.146  12.255  0.00  0.00    +0.000 OA
BRANCH  32  33
ATOM     33  C   UNL     1     -16.854  -0.047  11.513  0.00  0.00    +0.000 C 
BRANCH  33  34
ATOM     34  C   UNL     1     -17.063  -0.438  10.072  0.00  0.00    +0.000 C 
BRANCH  34  35
ATOM     35  O   UNL     1     -15.941  -0.134   9.279  0.00  0.00    +0.000 OA
BRANCH  35  36
ATOM     36  C   UNL     1     -15.352   1.101   9.522  0.00  0.00    +0.000 C 
BRANCH  36  37
ATOM     37  C   UNL     1     -15.726   2.084   8.436  0.00  0.00    +0.000 C 
BRANCH  37  38
ATOM     38  O   UNL     1     -14.628   2.307   7.525  0.00  0.00    +0.000 OA
BRANCH  38  39
ATOM     39  C   UNL     1     -14.494   3.672   7.119  0.00  0.00    +0.000 C 
BRANCH  39  40
ATOM     40  C   UNL     1     -13.121   4.223   7.429  0.00  0.00    +0.000 C 
BRANCH  40  41
ATOM     41  O   UNL     1     -12.347   4.456   6.261  0.00  0.00    +0.000 OA
BRANCH  41  42
ATOM     42  C   UNL     1     -10.948   4.609   6.508  0.00  0.00    +0.000 C 
BRANCH  42  44
ATOM     43  O   UNL     1      -9.800   6.381   5.398  0.00  0.00    +0.000 OA
ATOM     44  C   UNL     1     -10.556   6.073   6.543  0.00  0.00    +0.000 C 
ENDBRANCH  42  44
ENDBRANCH  41  42
ENDBRANCH  40  41
ENDBRANCH  39  40
ENDBRANCH  38  39
ENDBRANCH  37  38
ENDBRANCH  36  37
ENDBRANCH  35  36
ENDBRANCH  34  35
ENDBRANCH  33  34
ENDBRANCH  32  33
ENDBRANCH  31  32
ENDBRANCH  30  31
ENDBRANCH  29  30
ENDBRANCH  28  29
ENDBRANCH  27  28
ENDBRANCH  26  27
ENDBRANCH  25  26
ENDBRANCH  24  25
ENDBRANCH   1  24
TORSDOF 32
ENDMDL
MODEL 4
REMARK VINA RESULT:      -6.7      2.594      5.923
REMARK  Name = human_CD1d_tritonX_pred.rank_0
REMARK  32 active torsions:
REMARK  status: ('A' for Active; 'I' for Inactive)
REMARK    1  A    between atoms: O_2  and  C_21
REMARK    2  A    between atoms: O_2  and  C_23
REMARK    3  A    between atoms: C_3  and  C_5
REMARK    4  A    between atoms: C_3  and  C_15
REMARK    5  A    between atoms: O_4  and  C_24
REMARK    6  A    between atoms: O_4  and  C_25
REMARK    7  A    between atoms: O_6  and  C_26
REMARK    8  A    between atoms: O_6  and  C_27
REMARK    9  A    between atoms: O_8  and  C_28
REMARK   10  A    between atoms: O_8  and  C_29
REMARK   11  A    between atoms: O_10  and  C_30
REMARK   12  A    between atoms: O_10  and  C_31
REMARK   13  A    between atoms: O_12  and  C_32
REMARK   14  A    between atoms: O_12  and  C_33
REMARK   15  A    between atoms: O_14  and  C_34
REMARK   16  A    between atoms: O_14  and  C_35
REMARK   17  A    between atoms: O_16  and  C_36
REMARK   18  A    between atoms: O_16  and  C_37
REMARK   19  A    between atoms: O_18  and  C_38
REMARK   20  A    between atoms: O_18  and  C_39
REMARK   21  A    between atoms: O_20  and  C_40
REMARK   22  A    between atoms: O_20  and  C_41
REMARK   23  A    between atoms: C_23  and  C_24
REMARK   24  A    between atoms: C_25  and  C_26
REMARK   25  A    between atoms: C_27  and  C_28
REMARK   26  A    between atoms: C_29  and  C_30
REMARK   27  A    between atoms: C_31  and  C_32
REMARK   28  A    between atoms: C_33  and  C_34
REMARK   29  A    between atoms: C_35  and  C_36
REMARK   30  A    between atoms: C_37  and  C_38
REMARK   31  A    between atoms: C_39  and  C_40
REMARK   32  A    between atoms: C_41  and  C_42
REMARK                            x       y       z     vdW  Elec       q    Type
REMARK                         _______ _______ _______ _____ _____    ______ ____
ROOT
ATOM      1  O   UNL     1     -15.663   7.192  19.443  0.00  0.00    +0.000 OA
ENDROOT
BRANCH   1   2
ATOM      2  C   UNL     1     -15.438   8.549  19.848  0.00  0.00    +0.000 C 
BRANCH   2   3
ATOM      3  C   UNL     1     -16.069   8.783  21.214  0.00  0.00    +0.000 C 
BRANCH   3   4
ATOM      4  O   UNL     1     -15.306   9.655  22.021  0.00  0.00    +0.000 OA
BRANCH   4   5
ATOM      5  C   UNL     1     -14.744   9.128  23.211  0.00  0.00    +0.000 C 
BRANCH   5   6
ATOM      6  C   UNL     1     -13.223   9.050  23.135  0.00  0.00    +0.000 C 
BRANCH   6   7
ATOM      7  O   UNL     1     -12.835   7.870  22.438  0.00  0.00    +0.000 OA
BRANCH   7   8
ATOM      8  C   UNL     1     -11.732   8.027  21.526  0.00  0.00    +0.000 C 
BRANCH   8   9
ATOM      9  C   UNL     1     -10.748   6.871  21.699  0.00  0.00    +0.000 C 
BRANCH   9  10
ATOM     10  O   UNL     1      -9.952   7.037  22.882  0.00  0.00    +0.000 OA
BRANCH  10  14
ATOM     11  C   UNL     1      -6.318   5.109  23.147  0.00  0.00    +0.000 A 
ATOM     12  C   UNL     1      -7.368   4.635  22.336  0.00  0.00    +0.000 A 
ATOM     13  C   UNL     1      -8.568   5.273  22.258  0.00  0.00    +0.000 A 
ATOM     14  C   UNL     1      -8.721   6.441  22.960  0.00  0.00    +0.000 A 
ATOM     15  C   UNL     1      -7.733   6.948  23.749  0.00  0.00    +0.000 A 
ATOM     16  C   UNL     1      -6.536   6.317  23.849  0.00  0.00    +0.000 A 
BRANCH  11  18
ATOM     17  C   UNL     1      -4.530   4.515  24.712  0.00  0.00    +0.000 C 
ATOM     18  C   UNL     1      -4.987   4.411  23.274  0.00  0.00    +0.000 C 
ATOM     19  C   UNL     1      -5.234   2.971  22.941  0.00  0.00    +0.000 C 
BRANCH  18  20
ATOM     20  C   UNL     1      -3.898   4.951  22.319  0.00  0.00    +0.000 C 
ATOM     21  C   UNL     1      -2.528   4.464  22.757  0.00  0.00    +0.000 C 
ATOM     22  C   UNL     1      -3.853   6.437  22.327  0.00  0.00    +0.000 C 
ATOM     23  C   UNL     1      -4.119   4.448  20.915  0.00  0.00    +0.000 C 
ENDBRANCH  18  20
ENDBRANCH  11  18
ENDBRANCH  10  14
ENDBRANCH   9  10
ENDBRANCH   8   9
ENDBRANCH   7   8
ENDBRANCH   6   7
ENDBRANCH   5   6
ENDBRANCH   4   5
ENDBRANCH   3   4
ENDBRANCH   2   3
ENDBRANCH   1   2
BRANCH   1  24
ATOM     24  C   UNL     1     -15.517   6.258  20.536  0.00  0.00    +0.000 C 
BRANCH  24  25
ATOM     25  C   UNL     1     -14.917   4.952  20.065  0.00  0.00    +0.000 C 
BRANCH  25  26
ATOM     26  O   UNL     1     -14.245   5.131  18.812  0.00  0.00    +0.000 OA
BRANCH  26  27
ATOM     27  C   UNL     1     -13.997   3.904  18.138  0.00  0.00    +0.000 C 
BRANCH  27  28
ATOM     28  C   UNL     1     -12.511   3.594  18.061  0.00  0.00    +0.000 C 
BRANCH  28  29
ATOM     29  O   UNL     1     -12.108   3.317  16.722  0.00  0.00    +0.000 OA
BRANCH  29  30
ATOM     30  C   UNL     1     -12.414   4.305  15.789  0.00  0.00    +0.000 C 
BRANCH  30  31
ATOM     31  C   UNL     1     -12.331   3.771  14.380  0.00  0.00    +0.000 C 
BRANCH  31  32
ATOM     32  O   UNL     1     -11.249   4.327  13.659  0.00  0.00    +0.000 OA
BRANCH  32  33
ATOM     33  C   UNL     1     -10.802   3.564  12.539  0.00  0.00    +0.000 C 
BRANCH  33  34
ATOM     34  C   UNL     1      -9.308   3.374  12.595  0.00  0.00    +0.000 C 
BRANCH  34  35
ATOM     35  O   UNL     1      -8.708   3.571  11.337  0.00  0.00    +0.000 OA
BRANCH  35  36
ATOM     36  C   UNL     1      -9.187   4.652  10.608  0.00  0.00    +0.000 C 
BRANCH  36  37
ATOM     37  C   UNL     1      -9.119   4.358   9.126  0.00  0.00    +0.000 C 
BRANCH  37  38
ATOM     38  O   UNL     1      -9.254   5.564   8.342  0.00  0.00    +0.000 OA
BRANCH  38  39
ATOM     39  C   UNL     1     -10.554   5.727   7.770  0.00  0.00    +0.000 C 
BRANCH  39  40
ATOM     40  C   UNL     1     -10.733   4.890   6.524  0.00  0.00    +0.000 C 
BRANCH  40  41
ATOM     41  O   UNL     1     -12.062   4.414   6.368  0.00  0.00    +0.000 OA
BRANCH  41  42
ATOM     42  C   UNL     1     -12.995   4.972   7.294  0.00  0.00    +0.000 C 
BRANCH  42  44
ATOM     43  O   UNL     1     -14.121   2.884   7.547  0.00  0.00    +0.000 OA
ATOM     44  C   UNL     1     -14.323   4.241   7.241  0.00  0.00    +0.000 C 
ENDBRANCH  42  44
ENDBRANCH  41  42
ENDBRANCH  40  41
ENDBRANCH  39  40
ENDBRANCH  38  39
ENDBRANCH  37  38
ENDBRANCH  36  37
ENDBRANCH  35  36
ENDBRANCH  34  35
ENDBRANCH  33  34
ENDBRANCH  32  33
ENDBRANCH  31  32
ENDBRANCH  30  31
ENDBRANCH  29  30
ENDBRANCH  28  29
ENDBRANCH  27  28
ENDBRANCH  26  27
ENDBRANCH  25  26
ENDBRANCH  24  25
ENDBRANCH   1  24
TORSDOF 32
ENDMDL
MODEL 5
REMARK VINA RESULT:      -6.7      3.030      6.471
REMARK  Name = human_CD1d_tritonX_pred.rank_0
REMARK  32 active torsions:
REMARK  status: ('A' for Active; 'I' for Inactive)
REMARK    1  A    between atoms: O_2  and  C_21
REMARK    2  A    between atoms: O_2  and  C_23
REMARK    3  A    between atoms: C_3  and  C_5
REMARK    4  A    between atoms: C_3  and  C_15
REMARK    5  A    between atoms: O_4  and  C_24
REMARK    6  A    between atoms: O_4  and  C_25
REMARK    7  A    between atoms: O_6  and  C_26
REMARK    8  A    between atoms: O_6  and  C_27
REMARK    9  A    between atoms: O_8  and  C_28
REMARK   10  A    between atoms: O_8  and  C_29
REMARK   11  A    between atoms: O_10  and  C_30
REMARK   12  A    between atoms: O_10  and  C_31
REMARK   13  A    between atoms: O_12  and  C_32
REMARK   14  A    between atoms: O_12  and  C_33
REMARK   15  A    between atoms: O_14  and  C_34
REMARK   16  A    between atoms: O_14  and  C_35
REMARK   17  A    between atoms: O_16  and  C_36
REMARK   18  A    between atoms: O_16  and  C_37
REMARK   19  A    between atoms: O_18  and  C_38
REMARK   20  A    between atoms: O_18  and  C_39
REMARK   21  A    between atoms: O_20  and  C_40
REMARK   22  A    between atoms: O_20  and  C_41
REMARK   23  A    between atoms: C_23  and  C_24
REMARK   24  A    between atoms: C_25  and  C_26
REMARK   25  A    between atoms: C_27  and  C_28
REMARK   26  A    between atoms: C_29  and  C_30
REMARK   27  A    between atoms: C_31  and  C_32
REMARK   28  A    between atoms: C_33  and  C_34
REMARK   29  A    between atoms: C_35  and  C_36
REMARK   30  A    between atoms: C_37  and  C_38
REMARK   31  A    between atoms: C_39  and  C_40
REMARK   32  A    between atoms: C_41  and  C_42
REMARK                            x       y       z     vdW  Elec       q    Type
REMARK                         _______ _______ _______ _____ _____    ______ ____
ROOT
ATOM      1  O   UNL     1     -15.111   6.163  18.521  0.00  0.00    +0.000 OA
ENDROOT
BRANCH   1   2
ATOM      2  C   UNL     1     -15.382   7.224  19.446  0.00  0.00    +0.000 C 
BRANCH   2   3
ATOM      3  C   UNL     1     -15.977   6.645  20.723  0.00  0.00    +0.000 C 
BRANCH   3   4
ATOM      4  O   UNL     1     -15.430   7.228  21.887  0.00  0.00    +0.000 OA
BRANCH   4   5
ATOM      5  C   UNL     1     -14.812   8.497  21.759  0.00  0.00    +0.000 C 
BRANCH   5   6
ATOM      6  C   UNL     1     -13.406   8.506  22.350  0.00  0.00    +0.000 C 
BRANCH   6   7
ATOM      7  O   UNL     1     -12.537   7.723  21.539  0.00  0.00    +0.000 OA
BRANCH   7   8
ATOM      8  C   UNL     1     -11.228   8.282  21.318  0.00  0.00    +0.000 C 
BRANCH   8   9
ATOM      9  C   UNL     1     -10.169   7.187  21.438  0.00  0.00    +0.000 C 
BRANCH   9  10
ATOM     10  O   UNL     1      -9.198   7.509  22.445  0.00  0.00    +0.000 OA
BRANCH  10  14
ATOM     11  C   UNL     1      -5.603   5.494  22.516  0.00  0.00    +0.000 A 
ATOM     12  C   UNL     1      -5.693   6.887  22.706  0.00  0.00    +0.000 A 
ATOM     13  C   UNL     1      -6.883   7.547  22.675  0.00  0.00    +0.000 A 
ATOM     14  C   UNL     1      -8.024   6.807  22.503  0.00  0.00    +0.000 A 
ATOM     15  C   UNL     1      -7.993   5.456  22.327  0.00  0.00    +0.000 A 
ATOM     16  C   UNL     1      -6.813   4.785  22.340  0.00  0.00    +0.000 A 
BRANCH  11  18
ATOM     17  C   UNL     1      -4.603   3.258  22.587  0.00  0.00    +0.000 C 
ATOM     18  C   UNL     1      -4.297   4.738  22.519  0.00  0.00    +0.000 C 
ATOM     19  C   UNL     1      -3.633   5.041  21.210  0.00  0.00    +0.000 C 
BRANCH  18  20
ATOM     20  C   UNL     1      -3.335   5.146  23.658  0.00  0.00    +0.000 C 
ATOM     21  C   UNL     1      -3.904   4.721  25.001  0.00  0.00    +0.000 C 
ATOM     22  C   UNL     1      -3.149   6.620  23.713  0.00  0.00    +0.000 C 
ATOM     23  C   UNL     1      -2.001   4.462  23.504  0.00  0.00    +0.000 C 
ENDBRANCH  18  20
ENDBRANCH  11  18
ENDBRANCH  10  14
ENDBRANCH   9  10
ENDBRANCH   8   9
ENDBRANCH   7   8
ENDBRANCH   6   7
ENDBRANCH   5   6
ENDBRANCH   4   5
ENDBRANCH   3   4
ENDBRANCH   2   3
ENDBRANCH   1   2
BRANCH   1  24
ATOM     24  C   UNL     1     -14.230   5.159  19.075  0.00  0.00    +0.000 C 
BRANCH  24  25
ATOM     25  C   UNL     1     -14.072   3.987  18.132  0.00  0.00    +0.000 C 
BRANCH  25  26
ATOM     26  O   UNL     1     -13.380   4.389  16.942  0.00  0.00    +0.000 OA
BRANCH  26  27
ATOM     27  C   UNL     1     -12.191   3.644  16.716  0.00  0.00    +0.000 C 
BRANCH  27  28
ATOM     28  C   UNL     1     -11.664   3.839  15.304  0.00  0.00    +0.000 C 
BRANCH  28  29
ATOM     29  O   UNL     1     -11.083   2.639  14.797  0.00  0.00    +0.000 OA
BRANCH  29  30
ATOM     30  C   UNL     1     -10.284   2.793  13.668  0.00  0.00    +0.000 C 
BRANCH  30  31
ATOM     31  C   UNL     1      -9.338   3.959  13.821  0.00  0.00    +0.000 C 
BRANCH  31  32
ATOM     32  O   UNL     1      -8.832   4.405  12.578  0.00  0.00    +0.000 OA
BRANCH  32  33
ATOM     33  C   UNL     1      -9.504   3.899  11.425  0.00  0.00    +0.000 C 
BRANCH  33  34
ATOM     34  C   UNL     1      -9.625   4.972  10.373  0.00  0.00    +0.000 C 
BRANCH  34  35
ATOM     35  O   UNL     1     -10.968   5.231  10.041  0.00  0.00    +0.000 OA
BRANCH  35  36
ATOM     36  C   UNL     1     -11.389   4.729   8.816  0.00  0.00    +0.000 C 
BRANCH  36  37
ATOM     37  C   UNL     1     -12.215   5.761   8.082  0.00  0.00    +0.000 C 
BRANCH  37  38
ATOM     38  O   UNL     1     -13.495   5.224   7.680  0.00  0.00    +0.000 OA
BRANCH  38  39
ATOM     39  C   UNL     1     -13.438   3.849   7.294  0.00  0.00    +0.000 C 
BRANCH  39  40
ATOM     40  C   UNL     1     -14.661   3.083   7.744  0.00  0.00    +0.000 C 
BRANCH  40  41
ATOM     41  O   UNL     1     -14.341   1.826   8.322  0.00  0.00    +0.000 OA
BRANCH  41  42
ATOM     42  C   UNL     1     -15.003   1.566   9.561  0.00  0.00    +0.000 C 
BRANCH  42  44
ATOM     43  O   UNL     1     -14.969  -0.817   9.446  0.00  0.00    +0.000 OA
ATOM     44  C   UNL     1     -15.828   0.295   9.484  0.00  0.00    +0.000 C 
ENDBRANCH  42  44
ENDBRANCH  41  42
ENDBRANCH  40  41
ENDBRANCH  39  40
ENDBRANCH  38  39
ENDBRANCH  37  38
ENDBRANCH  36  37
ENDBRANCH  35  36
ENDBRANCH  34  35
ENDBRANCH  33  34
ENDBRANCH  32  33
ENDBRANCH  31  32
ENDBRANCH  30  31
ENDBRANCH  29  30
ENDBRANCH  28  29
ENDBRANCH  27  28
ENDBRANCH  26  27
ENDBRANCH  25  26
ENDBRANCH  24  25
ENDBRANCH   1  24
TORSDOF 32
ENDMDL
MODEL 6
REMARK VINA RESULT:      -6.6      3.492      8.178
REMARK  Name = human_CD1d_tritonX_pred.rank_0
REMARK  32 active torsions:
REMARK  status: ('A' for Active; 'I' for Inactive)
REMARK    1  A    between atoms: O_2  and  C_21
REMARK    2  A    between atoms: O_2  and  C_23
REMARK    3  A    between atoms: C_3  and  C_5
REMARK    4  A    between atoms: C_3  and  C_15
REMARK    5  A    between atoms: O_4  and  C_24
REMARK    6  A    between atoms: O_4  and  C_25
REMARK    7  A    between atoms: O_6  and  C_26
REMARK    8  A    between atoms: O_6  and  C_27
REMARK    9  A    between atoms: O_8  and  C_28
REMARK   10  A    between atoms: O_8  and  C_29
REMARK   11  A    between atoms: O_10  and  C_30
REMARK   12  A    between atoms: O_10  and  C_31
REMARK   13  A    between atoms: O_12  and  C_32
REMARK   14  A    between atoms: O_12  and  C_33
REMARK   15  A    between atoms: O_14  and  C_34
REMARK   16  A    between atoms: O_14  and  C_35
REMARK   17  A    between atoms: O_16  and  C_36
REMARK   18  A    between atoms: O_16  and  C_37
REMARK   19  A    between atoms: O_18  and  C_38
REMARK   20  A    between atoms: O_18  and  C_39
REMARK   21  A    between atoms: O_20  and  C_40
REMARK   22  A    between atoms: O_20  and  C_41
REMARK   23  A    between atoms: C_23  and  C_24
REMARK   24  A    between atoms: C_25  and  C_26
REMARK   25  A    between atoms: C_27  and  C_28
REMARK   26  A    between atoms: C_29  and  C_30
REMARK   27  A    between atoms: C_31  and  C_32
REMARK   28  A    between atoms: C_33  and  C_34
REMARK   29  A    between atoms: C_35  and  C_36
REMARK   30  A    between atoms: C_37  and  C_38
REMARK   31  A    between atoms: C_39  and  C_40
REMARK   32  A    between atoms: C_41  and  C_42
REMARK                            x       y       z     vdW  Elec       q    Type
REMARK                         _______ _______ _______ _____ _____    ______ ____
ROOT
ATOM      1  O   UNL     1     -12.841   3.696  16.323  0.00  0.00    +0.000 OA
ENDROOT
BRANCH   1   2
ATOM      2  C   UNL     1     -13.937   4.342  16.985  0.00  0.00    +0.000 C 
BRANCH   2   3
ATOM      3  C   UNL     1     -13.895   4.020  18.473  0.00  0.00    +0.000 C 
BRANCH   3   4
ATOM      4  O   UNL     1     -15.096   4.357  19.133  0.00  0.00    +0.000 OA
BRANCH   4   5
ATOM      5  C   UNL     1     -14.996   4.993  20.396  0.00  0.00    +0.000 C 
BRANCH   5   6
ATOM      6  C   UNL     1     -14.226   6.307  20.311  0.00  0.00    +0.000 C 
BRANCH   6   7
ATOM      7  O   UNL     1     -14.300   6.991  21.557  0.00  0.00    +0.000 OA
BRANCH   7   8
ATOM      8  C   UNL     1     -13.350   8.059  21.732  0.00  0.00    +0.000 C 
BRANCH   8   9
ATOM      9  C   UNL     1     -11.937   7.545  21.457  0.00  0.00    +0.000 C 
BRANCH   9  10
ATOM     10  O   UNL     1     -11.351   6.976  22.637  0.00  0.00    +0.000 OA
BRANCH  10  14
ATOM     11  C   UNL     1      -7.394   5.826  22.758  0.00  0.00    +0.000 A 
ATOM     12  C   UNL     1      -8.445   4.959  23.119  0.00  0.00    +0.000 A 
ATOM     13  C   UNL     1      -9.749   5.348  23.083  0.00  0.00    +0.000 A 
ATOM     14  C   UNL     1     -10.031   6.610  22.629  0.00  0.00    +0.000 A 
ATOM     15  C   UNL     1      -9.053   7.483  22.257  0.00  0.00    +0.000 A 
ATOM     16  C   UNL     1      -7.747   7.116  22.300  0.00  0.00    +0.000 A 
BRANCH  11  18
ATOM     17  C   UNL     1      -5.109   6.619  22.371  0.00  0.00    +0.000 C 
ATOM     18  C   UNL     1      -5.938   5.434  22.812  0.00  0.00    +0.000 C 
ATOM     19  C   UNL     1      -5.637   5.132  24.249  0.00  0.00    +0.000 C 
BRANCH  18  20
ATOM     20  C   UNL     1      -5.590   4.185  21.971  0.00  0.00    +0.000 C 
ATOM     21  C   UNL     1      -6.620   3.991  20.870  0.00  0.00    +0.000 C 
ATOM     22  C   UNL     1      -5.602   2.949  22.797  0.00  0.00    +0.000 C 
ATOM     23  C   UNL     1      -4.250   4.346  21.300  0.00  0.00    +0.000 C 
ENDBRANCH  18  20
ENDBRANCH  11  18
ENDBRANCH  10  14
ENDBRANCH   9  10
ENDBRANCH   8   9
ENDBRANCH   7   8
ENDBRANCH   6   7
ENDBRANCH   5   6
ENDBRANCH   4   5
ENDBRANCH   3   4
ENDBRANCH   2   3
ENDBRANCH   1   2
BRANCH   1  24
ATOM     24  C   UNL     1     -12.436   4.389  15.121  0.00  0.00    +0.000 C 
BRANCH  24  25
ATOM     25  C   UNL     1     -11.716   3.461  14.169  0.00  0.00    +0.000 C 
BRANCH  25  26
ATOM     26  O   UNL     1     -10.308   3.459  14.437  0.00  0.00    +0.000 OA
BRANCH  26  27
ATOM     27  C   UNL     1      -9.532   3.063  13.314  0.00  0.00    +0.000 C 
BRANCH  27  28
ATOM     28  C   UNL     1      -9.879   3.875  12.076  0.00  0.00    +0.000 C 
BRANCH  28  29
ATOM     29  O   UNL     1      -8.805   3.873  11.138  0.00  0.00    +0.000 OA
BRANCH  29  30
ATOM     30  C   UNL     1      -9.052   4.552   9.947  0.00  0.00    +0.000 C 
BRANCH  30  31
ATOM     31  C   UNL     1     -10.529   4.787   9.746  0.00  0.00    +0.000 C 
BRANCH  31  32
ATOM     32  O   UNL     1     -10.806   5.442   8.524  0.00  0.00    +0.000 OA
BRANCH  32  33
ATOM     33  C   UNL     1     -10.670   4.638   7.353  0.00  0.00    +0.000 C 
BRANCH  33  34
ATOM     34  C   UNL     1     -12.011   4.096   6.928  0.00  0.00    +0.000 C 
BRANCH  34  35
ATOM     35  O   UNL     1     -13.044   5.027   7.146  0.00  0.00    +0.000 OA
BRANCH  35  36
ATOM     36  C   UNL     1     -14.330   4.501   7.161  0.00  0.00    +0.000 C 
BRANCH  36  37
ATOM     37  C   UNL     1     -14.289   3.020   7.465  0.00  0.00    +0.000 C 
BRANCH  37  38
ATOM     38  O   UNL     1     -15.619   2.465   7.568  0.00  0.00    +0.000 OA
BRANCH  38  39
ATOM     39  C   UNL     1     -15.719   1.403   8.520  0.00  0.00    +0.000 C 
BRANCH  39  40
ATOM     40  C   UNL     1     -14.758   1.584   9.673  0.00  0.00    +0.000 C 
BRANCH  40  41
ATOM     41  O   UNL     1     -14.884   0.568  10.658  0.00  0.00    +0.000 OA
BRANCH  41  42
ATOM     42  C   UNL     1     -15.325   1.040  11.932  0.00  0.00    +0.000 C 
BRANCH  42  44
ATOM     43  O   UNL     1     -16.691  -0.893  11.636  0.00  0.00    +0.000 OA
ATOM     44  C   UNL     1     -16.542   0.272  12.409  0.00  0.00    +0.000 C 
ENDBRANCH  42  44
ENDBRANCH  41  42
ENDBRANCH  40  41
ENDBRANCH  39  40
ENDBRANCH  38  39
ENDBRANCH  37  38
ENDBRANCH  36  37
ENDBRANCH  35  36
ENDBRANCH  34  35
ENDBRANCH  33  34
ENDBRANCH  32  33
ENDBRANCH  31  32
ENDBRANCH  30  31
ENDBRANCH  29  30
ENDBRANCH  28  29
ENDBRANCH  27  28
ENDBRANCH  26  27
ENDBRANCH  25  26
ENDBRANCH  24  25
ENDBRANCH   1  24
TORSDOF 32
ENDMDL
MODEL 7
REMARK VINA RESULT:      -6.5      6.410     13.226
REMARK  Name = human_CD1d_tritonX_pred.rank_0
REMARK  32 active torsions:
REMARK  status: ('A' for Active; 'I' for Inactive)
REMARK    1  A    between atoms: O_2  and  C_21
REMARK    2  A    between atoms: O_2  and  C_23
REMARK    3  A    between atoms: C_3  and  C_5
REMARK    4  A    between atoms: C_3  and  C_15
REMARK    5  A    between atoms: O_4  and  C_24
REMARK    6  A    between atoms: O_4  and  C_25
REMARK    7  A    between atoms: O_6  and  C_26
REMARK    8  A    between atoms: O_6  and  C_27
REMARK    9  A    between atoms: O_8  and  C_28
REMARK   10  A    between atoms: O_8  and  C_29
REMARK   11  A    between atoms: O_10  and  C_30
REMARK   12  A    between atoms: O_10  and  C_31
REMARK   13  A    between atoms: O_12  and  C_32
REMARK   14  A    between atoms: O_12  and  C_33
REMARK   15  A    between atoms: O_14  and  C_34
REMARK   16  A    between atoms: O_14  and  C_35
REMARK   17  A    between atoms: O_16  and  C_36
REMARK   18  A    between atoms: O_16  and  C_37
REMARK   19  A    between atoms: O_18  and  C_38
REMARK   20  A    between atoms: O_18  and  C_39
REMARK   21  A    between atoms: O_20  and  C_40
REMARK   22  A    between atoms: O_20  and  C_41
REMARK   23  A    between atoms: C_23  and  C_24
REMARK   24  A    between atoms: C_25  and  C_26
REMARK   25  A    between atoms: C_27  and  C_28
REMARK   26  A    between atoms: C_29  and  C_30
REMARK   27  A    between atoms: C_31  and  C_32
REMARK   28  A    between atoms: C_33  and  C_34
REMARK   29  A    between atoms: C_35  and  C_36
REMARK   30  A    between atoms: C_37  and  C_38
REMARK   31  A    between atoms: C_39  and  C_40
REMARK   32  A    between atoms: C_41  and  C_42
REMARK                            x       y       z     vdW  Elec       q    Type
REMARK                         _______ _______ _______ _____ _____    ______ ____
ROOT
ATOM      1  O   UNL     1     -15.852  -0.791  11.302  0.00  0.00    +0.000 OA
ENDROOT
BRANCH   1   2
ATOM      2  C   UNL     1     -14.881  -0.228  10.410  0.00  0.00    +0.000 C 
BRANCH   2   3
ATOM      3  C   UNL     1     -15.591   0.542   9.305  0.00  0.00    +0.000 C 
BRANCH   3   4
ATOM      4  O   UNL     1     -14.738   0.842   8.221  0.00  0.00    +0.000 OA
BRANCH   4   5
ATOM      5  C   UNL     1     -14.498   2.210   7.932  0.00  0.00    +0.000 C 
BRANCH   5   6
ATOM      6  C   UNL     1     -14.850   2.555   6.489  0.00  0.00    +0.000 C 
BRANCH   6   7
ATOM      7  O   UNL     1     -13.800   3.319   5.906  0.00  0.00    +0.000 OA
BRANCH   7   8
ATOM      8  C   UNL     1     -13.569   4.608   6.505  0.00  0.00    +0.000 C 
BRANCH   8   9
ATOM      9  C   UNL     1     -12.086   4.966   6.408  0.00  0.00    +0.000 C 
BRANCH   9  10
ATOM     10  O   UNL     1     -11.265   3.954   7.009  0.00  0.00    +0.000 OA
BRANCH  10  14
ATOM     11  C   UNL     1     -10.268   4.391  10.985  0.00  0.00    +0.000 A 
ATOM     12  C   UNL     1     -11.472   3.790  10.569  0.00  0.00    +0.000 A 
ATOM     13  C   UNL     1     -11.798   3.655   9.255  0.00  0.00    +0.000 A 
ATOM     14  C   UNL     1     -10.888   4.077   8.320  0.00  0.00    +0.000 A 
ATOM     15  C   UNL     1      -9.704   4.654   8.669  0.00  0.00    +0.000 A 
ATOM     16  C   UNL     1      -9.370   4.809   9.975  0.00  0.00    +0.000 A 
BRANCH  11  18
ATOM     17  C   UNL     1      -8.958   5.767  12.533  0.00  0.00    +0.000 C 
ATOM     18  C   UNL     1      -9.890   4.579  12.433  0.00  0.00    +0.000 C 
ATOM     19  C   UNL     1     -11.161   4.891  13.162  0.00  0.00    +0.000 C 
BRANCH  18  20
ATOM     20  C   UNL     1      -9.250   3.332  13.084  0.00  0.00    +0.000 C 
ATOM     21  C   UNL     1      -9.268   3.464  14.598  0.00  0.00    +0.000 C 
ATOM     22  C   UNL     1      -7.828   3.175  12.680  0.00  0.00    +0.000 C 
ATOM     23  C   UNL     1     -10.027   2.088  12.738  0.00  0.00    +0.000 C 
ENDBRANCH  18  20
ENDBRANCH  11  18
ENDBRANCH  10  14
ENDBRANCH   9  10
ENDBRANCH   8   9
ENDBRANCH   7   8
ENDBRANCH   6   7
ENDBRANCH   5   6
ENDBRANCH   4   5
ENDBRANCH   3   4
ENDBRANCH   2   3
ENDBRANCH   1   2
BRANCH   1  24
ATOM     24  C   UNL     1     -15.328  -0.987  12.636  0.00  0.00    +0.000 C 
BRANCH  24  25
ATOM     25  C   UNL     1     -13.957  -1.623  12.598  0.00  0.00    +0.000 C 
BRANCH  25  26
ATOM     26  O   UNL     1     -13.001  -0.800  13.279  0.00  0.00    +0.000 OA
BRANCH  26  27
ATOM     27  C   UNL     1     -13.555  -0.118  14.396  0.00  0.00    +0.000 C 
BRANCH  27  28
ATOM     28  C   UNL     1     -13.445   1.390  14.246  0.00  0.00    +0.000 C 
BRANCH  28  29
ATOM     29  O   UNL     1     -12.596   1.950  15.246  0.00  0.00    +0.000 OA
BRANCH  29  30
ATOM     30  C   UNL     1     -13.066   3.116  15.845  0.00  0.00    +0.000 C 
BRANCH  30  31
ATOM     31  C   UNL     1     -12.191   3.526  17.005  0.00  0.00    +0.000 C 
BRANCH  31  32
ATOM     32  O   UNL     1     -12.820   3.311  18.253  0.00  0.00    +0.000 OA
BRANCH  32  33
ATOM     33  C   UNL     1     -14.223   3.576  18.285  0.00  0.00    +0.000 C 
BRANCH  33  34
ATOM     34  C   UNL     1     -14.479   5.061  18.242  0.00  0.00    +0.000 C 
BRANCH  34  35
ATOM     35  O   UNL     1     -14.671   5.597  19.528  0.00  0.00    +0.000 OA
BRANCH  35  36
ATOM     36  C   UNL     1     -15.821   6.360  19.693  0.00  0.00    +0.000 C 
BRANCH  36  37
ATOM     37  C   UNL     1     -16.487   6.028  21.010  0.00  0.00    +0.000 C 
BRANCH  37  38
ATOM     38  O   UNL     1     -16.248   7.056  21.996  0.00  0.00    +0.000 OA
BRANCH  38  39
ATOM     39  C   UNL     1     -15.730   8.268  21.441  0.00  0.00    +0.000 C 
BRANCH  39  40
ATOM     40  C   UNL     1     -14.594   8.828  22.265  0.00  0.00    +0.000 C 
BRANCH  40  41
ATOM     41  O   UNL     1     -13.758   7.815  22.808  0.00  0.00    +0.000 OA
BRANCH  41  42
ATOM     42  C   UNL     1     -12.381   8.185  22.907  0.00  0.00    +0.000 C 
BRANCH  42  44
ATOM     43  O   UNL     1     -11.031   8.837  21.051  0.00  0.00    +0.000 OA
ATOM     44  C   UNL     1     -11.602   7.723  21.691  0.00  0.00    +0.000 C 
ENDBRANCH  42  44
ENDBRANCH  41  42
ENDBRANCH  40  41
ENDBRANCH  39  40
ENDBRANCH  38  39
ENDBRANCH  37  38
ENDBRANCH  36  37
ENDBRANCH  35  36
ENDBRANCH  34  35
ENDBRANCH  33  34
ENDBRANCH  32  33
ENDBRANCH  31  32
ENDBRANCH  30  31
ENDBRANCH  29  30
ENDBRANCH  28  29
ENDBRANCH  27  28
ENDBRANCH  26  27
ENDBRANCH  25  26
ENDBRANCH  24  25
ENDBRANCH   1  24
TORSDOF 32
ENDMDL
MODEL 8
REMARK VINA RESULT:      -6.4      2.269     11.332
REMARK  Name = human_CD1d_tritonX_pred.rank_0
REMARK  32 active torsions:
REMARK  status: ('A' for Active; 'I' for Inactive)
REMARK    1  A    between atoms: O_2  and  C_21
REMARK    2  A    between atoms: O_2  and  C_23
REMARK    3  A    between atoms: C_3  and  C_5
REMARK    4  A    between atoms: C_3  and  C_15
REMARK    5  A    between atoms: O_4  and  C_24
REMARK    6  A    between atoms: O_4  and  C_25
REMARK    7  A    between atoms: O_6  and  C_26
REMARK    8  A    between atoms: O_6  and  C_27
REMARK    9  A    between atoms: O_8  and  C_28
REMARK   10  A    between atoms: O_8  and  C_29
REMARK   11  A    between atoms: O_10  and  C_30
REMARK   12  A    between atoms: O_10  and  C_31
REMARK   13  A    between atoms: O_12  and  C_32
REMARK   14  A    between atoms: O_12  and  C_33
REMARK   15  A    between atoms: O_14  and  C_34
REMARK   16  A    between atoms: O_14  and  C_35
REMARK   17  A    between atoms: O_16  and  C_36
REMARK   18  A    between atoms: O_16  and  C_37
REMARK   19  A    between atoms: O_18  and  C_38
REMARK   20  A    between atoms: O_18  and  C_39
REMARK   21  A    between atoms: O_20  and  C_40
REMARK   22  A    between atoms: O_20  and  C_41
REMARK   23  A    between atoms: C_23  and  C_24
REMARK   24  A    between atoms: C_25  and  C_26
REMARK   25  A    between atoms: C_27  and  C_28
REMARK   26  A    between atoms: C_29  and  C_30
REMARK   27  A    between atoms: C_31  and  C_32
REMARK   28  A    between atoms: C_33  and  C_34
REMARK   29  A    between atoms: C_35  and  C_36
REMARK   30  A    between atoms: C_37  and  C_38
REMARK   31  A    between atoms: C_39  and  C_40
REMARK   32  A    between atoms: C_41  and  C_42
REMARK                            x       y       z     vdW  Elec       q    Type
REMARK                         _______ _______ _______ _____ _____    ______ ____
ROOT
ATOM      1  O   UNL     1     -15.475  10.582  22.173  0.00  0.00    +0.000 OA
ENDROOT
BRANCH   1   2
ATOM      2  C   UNL     1     -16.331   9.948  21.213  0.00  0.00    +0.000 C 
BRANCH   2   3
ATOM      3  C   UNL     1     -15.483   9.262  20.150  0.00  0.00    +0.000 C 
BRANCH   3   4
ATOM      4  O   UNL     1     -16.264   8.644  19.151  0.00  0.00    +0.000 OA
BRANCH   4   5
ATOM      5  C   UNL     1     -16.194   7.232  19.040  0.00  0.00    +0.000 C 
BRANCH   5   6
ATOM      6  C   UNL     1     -15.319   6.620  20.128  0.00  0.00    +0.000 C 
BRANCH   6   7
ATOM      7  O   UNL     1     -14.110   6.130  19.557  0.00  0.00    +0.000 OA
BRANCH   7   8
ATOM      8  C   UNL     1     -13.874   4.720  19.727  0.00  0.00    +0.000 C 
BRANCH   8   9
ATOM      9  C   UNL     1     -14.504   3.945  18.571  0.00  0.00    +0.000 C 
BRANCH   9  10
ATOM     10  O   UNL     1     -14.370   4.658  17.332  0.00  0.00    +0.000 OA
BRANCH  10  14
ATOM     11  C   UNL     1     -11.683   3.323  14.505  0.00  0.00    +0.000 A 
ATOM     12  C   UNL     1     -12.991   3.727  14.173  0.00  0.00    +0.000 A 
ATOM     13  C   UNL     1     -13.875   4.161  15.113  0.00  0.00    +0.000 A 
ATOM     14  C   UNL     1     -13.443   4.248  16.411  0.00  0.00    +0.000 A 
ATOM     15  C   UNL     1     -12.184   3.882  16.783  0.00  0.00    +0.000 A 
ATOM     16  C   UNL     1     -11.295   3.434  15.861  0.00  0.00    +0.000 A 
BRANCH  11  18
ATOM     17  C   UNL     1      -9.490   2.264  14.234  0.00  0.00    +0.000 C 
ATOM     18  C   UNL     1     -10.688   2.814  13.492  0.00  0.00    +0.000 C 
ATOM     19  C   UNL     1     -11.368   1.695  12.762  0.00  0.00    +0.000 C 
BRANCH  18  20
ATOM     20  C   UNL     1     -10.246   3.872  12.456  0.00  0.00    +0.000 C 
ATOM     21  C   UNL     1     -10.524   5.269  12.983  0.00  0.00    +0.000 C 
ATOM     22  C   UNL     1     -10.996   3.733  11.180  0.00  0.00    +0.000 C 
ATOM     23  C   UNL     1      -8.764   3.782  12.197  0.00  0.00    +0.000 C 
ENDBRANCH  18  20
ENDBRANCH  11  18
ENDBRANCH  10  14
ENDBRANCH   9  10
ENDBRANCH   8   9
ENDBRANCH   7   8
ENDBRANCH   6   7
ENDBRANCH   5   6
ENDBRANCH   4   5
ENDBRANCH   3   4
ENDBRANCH   2   3
ENDBRANCH   1   2
BRANCH   1  24
ATOM     24  C   UNL     1     -15.318   9.796  23.377  0.00  0.00    +0.000 C 
BRANCH  24  25
ATOM     25  C   UNL     1     -13.858   9.535  23.673  0.00  0.00    +0.000 C 
BRANCH  25  26
ATOM     26  O   UNL     1     -13.502   8.195  23.308  0.00  0.00    +0.000 OA
BRANCH  26  27
ATOM     27  C   UNL     1     -12.574   8.143  22.233  0.00  0.00    +0.000 C 
BRANCH  27  28
ATOM     28  C   UNL     1     -11.362   7.292  22.577  0.00  0.00    +0.000 C 
BRANCH  28  29
ATOM     29  O   UNL     1     -10.799   6.696  21.410  0.00  0.00    +0.000 OA
BRANCH  29  30
ATOM     30  C   UNL     1      -9.463   6.319  21.517  0.00  0.00    +0.000 C 
BRANCH  30  31
ATOM     31  C   UNL     1      -8.806   6.963  22.713  0.00  0.00    +0.000 C 
BRANCH  31  32
ATOM     32  O   UNL     1      -7.764   6.169  23.245  0.00  0.00    +0.000 OA
BRANCH  32  33
ATOM     33  C   UNL     1      -7.166   5.251  22.330  0.00  0.00    +0.000 C 
BRANCH  33  34
ATOM     34  C   UNL     1      -5.791   4.855  22.806  0.00  0.00    +0.000 C 
BRANCH  34  35
ATOM     35  O   UNL     1      -5.041   4.241  21.786  0.00  0.00    +0.000 OA
BRANCH  35  36
ATOM     36  C   UNL     1      -3.796   4.804  21.535  0.00  0.00    +0.000 C 
BRANCH  36  37
ATOM     37  C   UNL     1      -3.335   5.609  22.730  0.00  0.00    +0.000 C 
BRANCH  37  38
ATOM     38  O   UNL     1      -2.070   5.126  23.235  0.00  0.00    +0.000 OA
BRANCH  38  39
ATOM     39  C   UNL     1      -2.030   5.021  24.660  0.00  0.00    +0.000 C 
BRANCH  39  40
ATOM     40  C   UNL     1      -0.632   4.754  25.169  0.00  0.00    +0.000 C 
BRANCH  40  41
ATOM     41  O   UNL     1       0.356   5.510  24.483  0.00  0.00    +0.000 OA
BRANCH  41  42
ATOM     42  C   UNL     1       0.695   6.742  25.121  0.00  0.00    +0.000 C 
BRANCH  42  44
ATOM     43  O   UNL     1      -0.901   8.239  24.169  0.00  0.00    +0.000 OA
ATOM     44  C   UNL     1       0.468   7.919  24.191  0.00  0.00    +0.000 C 
ENDBRANCH  42  44
ENDBRANCH  41  42
ENDBRANCH  40  41
ENDBRANCH  39  40
ENDBRANCH  38  39
ENDBRANCH  37  38
ENDBRANCH  36  37
ENDBRANCH  35  36
ENDBRANCH  34  35
ENDBRANCH  33  34
ENDBRANCH  32  33
ENDBRANCH  31  32
ENDBRANCH  30  31
ENDBRANCH  29  30
ENDBRANCH  28  29
ENDBRANCH  27  28
ENDBRANCH  26  27
ENDBRANCH  25  26
ENDBRANCH  24  25
ENDBRANCH   1  24
TORSDOF 32
ENDMDL
MODEL 9
REMARK VINA RESULT:      -6.4      2.652      3.850
REMARK  Name = human_CD1d_tritonX_pred.rank_0
REMARK  32 active torsions:
REMARK  status: ('A' for Active; 'I' for Inactive)
REMARK    1  A    between atoms: O_2  and  C_21
REMARK    2  A    between atoms: O_2  and  C_23
REMARK    3  A    between atoms: C_3  and  C_5
REMARK    4  A    between atoms: C_3  and  C_15
REMARK    5  A    between atoms: O_4  and  C_24
REMARK    6  A    between atoms: O_4  and  C_25
REMARK    7  A    between atoms: O_6  and  C_26
REMARK    8  A    between atoms: O_6  and  C_27
REMARK    9  A    between atoms: O_8  and  C_28
REMARK   10  A    between atoms: O_8  and  C_29
REMARK   11  A    between atoms: O_10  and  C_30
REMARK   12  A    between atoms: O_10  and  C_31
REMARK   13  A    between atoms: O_12  and  C_32
REMARK   14  A    between atoms: O_12  and  C_33
REMARK   15  A    between atoms: O_14  and  C_34
REMARK   16  A    between atoms: O_14  and  C_35
REMARK   17  A    between atoms: O_16  and  C_36
REMARK   18  A    between atoms: O_16  and  C_37
REMARK   19  A    between atoms: O_18  and  C_38
REMARK   20  A    between atoms: O_18  and  C_39
REMARK   21  A    between atoms: O_20  and  C_40
REMARK   22  A    between atoms: O_20  and  C_41
REMARK   23  A    between atoms: C_23  and  C_24
REMARK   24  A    between atoms: C_25  and  C_26
REMARK   25  A    between atoms: C_27  and  C_28
REMARK   26  A    between atoms: C_29  and  C_30
REMARK   27  A    between atoms: C_31  and  C_32
REMARK   28  A    between atoms: C_33  and  C_34
REMARK   29  A    between atoms: C_35  and  C_36
REMARK   30  A    between atoms: C_37  and  C_38
REMARK   31  A    between atoms: C_39  and  C_40
REMARK   32  A    between atoms: C_41  and  C_42
REMARK                            x       y       z     vdW  Elec       q    Type
REMARK                         _______ _______ _______ _____ _____    ______ ____
ROOT
ATOM      1  O   UNL     1     -13.932   8.925  21.305  0.00  0.00    +0.000 OA
ENDROOT
BRANCH   1   2
ATOM      2  C   UNL     1     -13.023   8.209  22.151  0.00  0.00    +0.000 C 
BRANCH   2   3
ATOM      3  C   UNL     1     -11.602   8.376  21.630  0.00  0.00    +0.000 C 
BRANCH   3   4
ATOM      4  O   UNL     1     -10.920   7.146  21.514  0.00  0.00    +0.000 OA
BRANCH   4   5
ATOM      5  C   UNL     1      -9.514   7.153  21.698  0.00  0.00    +0.000 C 
BRANCH   5   6
ATOM      6  C   UNL     1      -9.062   6.063  22.664  0.00  0.00    +0.000 C 
BRANCH   6   7
ATOM      7  O   UNL     1      -9.165   4.789  22.036  0.00  0.00    +0.000 OA
BRANCH   7   8
ATOM      8  C   UNL     1      -8.056   4.427  21.190  0.00  0.00    +0.000 C 
BRANCH   8   9
ATOM      9  C   UNL     1      -6.874   3.981  22.050  0.00  0.00    +0.000 C 
BRANCH   9  10
ATOM     10  O   UNL     1      -5.661   4.633  21.646  0.00  0.00    +0.000 OA
BRANCH  10  14
ATOM     11  C   UNL     1      -2.473   4.789  24.255  0.00  0.00    +0.000 A 
ATOM     12  C   UNL     1      -2.313   4.524  22.881  0.00  0.00    +0.000 A 
ATOM     13  C   UNL     1      -3.371   4.467  22.026  0.00  0.00    +0.000 A 
ATOM     14  C   UNL     1      -4.618   4.731  22.530  0.00  0.00    +0.000 A 
ATOM     15  C   UNL     1      -4.825   5.006  23.848  0.00  0.00    +0.000 A 
ATOM     16  C   UNL     1      -3.784   5.052  24.716  0.00  0.00    +0.000 A 
BRANCH  11  18
ATOM     17  C   UNL     1      -1.890   4.843  26.634  0.00  0.00    +0.000 C 
ATOM     18  C   UNL     1      -1.324   4.833  25.232  0.00  0.00    +0.000 C 
ATOM     19  C   UNL     1      -0.548   3.567  25.025  0.00  0.00    +0.000 C 
BRANCH  18  20
ATOM     20  C   UNL     1      -0.366   6.029  25.025  0.00  0.00    +0.000 C 
ATOM     21  C   UNL     1      -1.075   7.144  24.275  0.00  0.00    +0.000 C 
ATOM     22  C   UNL     1       0.819   5.645  24.213  0.00  0.00    +0.000 C 
ATOM     23  C   UNL     1       0.076   6.596  26.350  0.00  0.00    +0.000 C 
ENDBRANCH  18  20
ENDBRANCH  11  18
ENDBRANCH  10  14
ENDBRANCH   9  10
ENDBRANCH   8   9
ENDBRANCH   7   8
ENDBRANCH   6   7
ENDBRANCH   5   6
ENDBRANCH   4   5
ENDBRANCH   3   4
ENDBRANCH   2   3
ENDBRANCH   1   2
BRANCH   1  24
ATOM     24  C   UNL     1     -15.289   8.438  21.414  0.00  0.00    +0.000 C 
BRANCH  24  25
ATOM     25  C   UNL     1     -15.862   8.106  20.054  0.00  0.00    +0.000 C 
BRANCH  25  26
ATOM     26  O   UNL     1     -16.716   6.957  20.135  0.00  0.00    +0.000 OA
BRANCH  26  27
ATOM     27  C   UNL     1     -16.369   5.944  19.200  0.00  0.00    +0.000 C 
BRANCH  27  28
ATOM     28  C   UNL     1     -15.042   5.288  19.548  0.00  0.00    +0.000 C 
BRANCH  28  29
ATOM     29  O   UNL     1     -14.790   4.156  18.719  0.00  0.00    +0.000 OA
BRANCH  29  30
ATOM     30  C   UNL     1     -13.609   4.206  17.983  0.00  0.00    +0.000 C 
BRANCH  30  31
ATOM     31  C   UNL     1     -13.846   4.766  16.602  0.00  0.00    +0.000 C 
BRANCH  31  32
ATOM     32  O   UNL     1     -12.728   4.595  15.755  0.00  0.00    +0.000 OA
BRANCH  32  33
ATOM     33  C   UNL     1     -11.896   3.475  16.057  0.00  0.00    +0.000 C 
BRANCH  33  34
ATOM     34  C   UNL     1     -11.601   2.687  14.806  0.00  0.00    +0.000 C 
BRANCH  34  35
ATOM     35  O   UNL     1     -12.754   2.063  14.296  0.00  0.00    +0.000 OA
BRANCH  35  36
ATOM     36  C   UNL     1     -12.530   0.932  13.521  0.00  0.00    +0.000 C 
BRANCH  36  37
ATOM     37  C   UNL     1     -13.642  -0.073  13.725  0.00  0.00    +0.000 C 
BRANCH  37  38
ATOM     38  O   UNL     1     -14.858   0.344  13.066  0.00  0.00    +0.000 OA
BRANCH  38  39
ATOM     39  C   UNL     1     -15.698  -0.747  12.680  0.00  0.00    +0.000 C 
BRANCH  39  40
ATOM     40  C   UNL     1     -16.795  -0.310  11.736  0.00  0.00    +0.000 C 
BRANCH  40  41
ATOM     41  O   UNL     1     -16.311   0.479  10.659  0.00  0.00    +0.000 OA
BRANCH  41  42
ATOM     42  C   UNL     1     -15.491  -0.236   9.733  0.00  0.00    +0.000 C 
BRANCH  42  44
ATOM     43  O   UNL     1     -15.878   1.673   8.355  0.00  0.00    +0.000 OA
ATOM     44  C   UNL     1     -14.924   0.691   8.675  0.00  0.00    +0.000 C 
ENDBRANCH  42  44
ENDBRANCH  41  42
ENDBRANCH  40  41
ENDBRANCH  39  40
ENDBRANCH  38  39
ENDBRANCH  37  38
ENDBRANCH  36  37
ENDBRANCH  35  36
ENDBRANCH  34  35
ENDBRANCH  33  34
ENDBRANCH  32  33
ENDBRANCH  31  32
ENDBRANCH  30  31
ENDBRANCH  29  30
ENDBRANCH  28  29
ENDBRANCH  27  28
ENDBRANCH  26  27
ENDBRANCH  25  26
ENDBRANCH  24  25
ENDBRANCH   1  24
TORSDOF 32
ENDMDL
