REMARK  Name = human_CD1d_tritonX_pred.rank_0
REMARK  32 active torsions:
REMARK  status: ('A' for Active; 'I' for Inactive)
REMARK    1  A    between atoms: O_2  and  C_21
REMARK    2  A    between atoms: O_2  and  C_23
REMARK    3  A    between atoms: C_3  and  C_5
REMARK    4  A    between atoms: C_3  and  C_15
REMARK    5  A    between atoms: O_4  and  C_24
REMARK    6  A    between atoms: O_4  and  C_25
REMARK    7  A    between atoms: O_6  and  C_26
REMARK    8  A    between atoms: O_6  and  C_27
REMARK    9  A    between atoms: O_8  and  C_28
REMARK   10  A    between atoms: O_8  and  C_29
REMARK   11  A    between atoms: O_10  and  C_30
REMARK   12  A    between atoms: O_10  and  C_31
REMARK   13  A    between atoms: O_12  and  C_32
REMARK   14  A    between atoms: O_12  and  C_33
REMARK   15  A    between atoms: O_14  and  C_34
REMARK   16  A    between atoms: O_14  and  C_35
REMARK   17  A    between atoms: O_16  and  C_36
REMARK   18  A    between atoms: O_16  and  C_37
REMARK   19  A    between atoms: O_18  and  C_38
REMARK   20  A    between atoms: O_18  and  C_39
REMARK   21  A    between atoms: O_20  and  C_40
REMARK   22  A    between atoms: O_20  and  C_41
REMARK   23  A    between atoms: C_23  and  C_24
REMARK   24  A    between atoms: C_25  and  C_26
REMARK   25  A    between atoms: C_27  and  C_28
REMARK   26  A    between atoms: C_29  and  C_30
REMARK   27  A    between atoms: C_31  and  C_32
REMARK   28  A    between atoms: C_33  and  C_34
REMARK   29  A    between atoms: C_35  and  C_36
REMARK   30  A    between atoms: C_37  and  C_38
REMARK   31  A    between atoms: C_39  and  C_40
REMARK   32  A    between atoms: C_41  and  C_42
REMARK                            x       y       z     vdW  Elec       q    Type
REMARK                         _______ _______ _______ _____ _____    ______ ____
ROOT
ATOM      1  O   UNL     1      -8.598   1.376  20.602  0.00  0.00    +0.000 OA
ENDROOT
BRANCH   1   2
ATOM      2  C   UNL     1      -7.789   1.189  21.771  0.00  0.00    +0.000 C 
BRANCH   2   3
ATOM      3  C   UNL     1      -7.788   2.467  22.599  0.00  0.00    +0.000 C 
BRANCH   3   4
ATOM      4  O   UNL     1      -6.722   2.512  23.523  0.00  0.00    +0.000 OA
BRANCH   4   5
ATOM      5  C   UNL     1      -5.417   2.247  23.036  0.00  0.00    +0.000 C 
BRANCH   5   6
ATOM      6  C   UNL     1      -4.359   2.430  24.119  0.00  0.00    +0.000 C 
BRANCH   6   7
ATOM      7  O   UNL     1      -3.277   1.533  23.893  0.00  0.00    +0.000 OA
BRANCH   7   8
ATOM      8  C   UNL     1      -2.343   1.937  22.874  0.00  0.00    +0.000 C 
BRANCH   8   9
ATOM      9  C   UNL     1      -1.276   0.858  22.692  0.00  0.00    +0.000 C 
BRANCH   9  10
ATOM     10  O   UNL     1      -0.123   1.375  22.011  0.00  0.00    +0.000 OA
BRANCH  10  14
ATOM     11  C   UNL     1       3.169  -0.978  21.225  0.00  0.00    +0.000 A 
ATOM     12  C   UNL     1       3.241   0.180  22.024  0.00  0.00    +0.000 A 
ATOM     13  C   UNL     1       2.151   0.956  22.274  0.00  0.00    +0.000 A 
ATOM     14  C   UNL     1       0.944   0.552  21.765  0.00  0.00    +0.000 A 
ATOM     15  C   UNL     1       0.818  -0.566  20.997  0.00  0.00    +0.000 A 
ATOM     16  C   UNL     1       1.897  -1.343  20.726  0.00  0.00    +0.000 A 
BRANCH  11  18
ATOM     17  C   UNL     1       4.420  -2.967  21.920  0.00  0.00    +0.000 C 
ATOM     18  C   UNL     1       4.363  -1.844  20.908  0.00  0.00    +0.000 C 
ATOM     19  C   UNL     1       4.114  -2.422  19.548  0.00  0.00    +0.000 C 
BRANCH  18  20
ATOM     20  C   UNL     1       5.705  -1.078  20.872  0.00  0.00    +0.000 C 
ATOM     21  C   UNL     1       6.053  -0.565  22.259  0.00  0.00    +0.000 C 
ATOM     22  C   UNL     1       5.633   0.107  19.977  0.00  0.00    +0.000 C 
ATOM     23  C   UNL     1       6.829  -1.985  20.440  0.00  0.00    +0.000 C 
ENDBRANCH  18  20
ENDBRANCH  11  18
ENDBRANCH  10  14
ENDBRANCH   9  10
ENDBRANCH   8   9
ENDBRANCH   7   8
ENDBRANCH   6   7
ENDBRANCH   5   6
ENDBRANCH   4   5
ENDBRANCH   3   4
ENDBRANCH   2   3
ENDBRANCH   1   2
BRANCH   1  24
ATOM     24  C   UNL     1      -8.239   0.472  19.532  0.00  0.00    +0.000 C 
BRANCH  24  25
ATOM     25  C   UNL     1      -8.598   1.051  18.182  0.00  0.00    +0.000 C 
BRANCH  25  26
ATOM     26  O   UNL     1      -7.700   0.570  17.173  0.00  0.00    +0.000 OA
BRANCH  26  27
ATOM     27  C   UNL     1      -7.900   1.194  15.912  0.00  0.00    +0.000 C 
BRANCH  27  28
ATOM     28  C   UNL     1      -6.709   0.992  14.989  0.00  0.00    +0.000 C 
BRANCH  28  29
ATOM     29  O   UNL     1      -7.083   1.139  13.621  0.00  0.00    +0.000 OA
BRANCH  29  30
ATOM     30  C   UNL     1      -7.487   2.418  13.246  0.00  0.00    +0.000 C 
BRANCH  30  31
ATOM     31  C   UNL     1      -8.830   2.388  12.558  0.00  0.00    +0.000 C 
BRANCH  31  32
ATOM     32  O   UNL     1      -9.203   3.656  12.056  0.00  0.00    +0.000 OA
BRANCH  32  33
ATOM     33  C   UNL     1     -10.564   3.775  11.642  0.00  0.00    +0.000 C 
BRANCH  33  34
ATOM     34  C   UNL     1     -10.824   2.910  10.435  0.00  0.00    +0.000 C 
BRANCH  34  35
ATOM     35  O   UNL     1     -12.128   3.086   9.936  0.00  0.00    +0.000 OA
BRANCH  35  36
ATOM     36  C   UNL     1     -13.151   2.637  10.762  0.00  0.00    +0.000 C 
BRANCH  36  37
ATOM     37  C   UNL     1     -13.224   1.127  10.734  0.00  0.00    +0.000 C 
BRANCH  37  38
ATOM     38  O   UNL     1     -13.789   0.603  11.956  0.00  0.00    +0.000 OA
BRANCH  38  39
ATOM     39  C   UNL     1     -12.804   0.213  12.916  0.00  0.00    +0.000 C 
BRANCH  39  40
ATOM     40  C   UNL     1     -12.605  -1.285  12.946  0.00  0.00    +0.000 C 
BRANCH  40  41
ATOM     41  O   UNL     1     -11.506  -1.677  13.756  0.00  0.00    +0.000 OA
BRANCH  41  42
ATOM     42  C   UNL     1     -10.255  -1.712  13.067  0.00  0.00    +0.000 C 
BRANCH  42  44
ATOM     43  O   UNL     1      -8.670  -1.912  14.839  0.00  0.00    +0.000 OA
ATOM     44  C   UNL     1      -9.265  -2.615  13.777  0.00  0.00    +0.000 C 
ENDBRANCH  42  44
ENDBRANCH  41  42
ENDBRANCH  40  41
ENDBRANCH  39  40
ENDBRANCH  38  39
ENDBRANCH  37  38
ENDBRANCH  36  37
ENDBRANCH  35  36
ENDBRANCH  34  35
ENDBRANCH  33  34
ENDBRANCH  32  33
ENDBRANCH  31  32
ENDBRANCH  30  31
ENDBRANCH  29  30
ENDBRANCH  28  29
ENDBRANCH  27  28
ENDBRANCH  26  27
ENDBRANCH  25  26
ENDBRANCH  24  25
ENDBRANCH   1  24
TORSDOF 32
