REMARK  Name = human_CD1d_Tween20_pred.rank_0
REMARK  75 active torsions:
REMARK  status: ('A' for Active; 'I' for Inactive)
REMARK    1  A    between atoms: C_1  and  C_3
REMARK    2  A    between atoms: C_3  and  O_4
REMARK    3  A    between atoms: O_4  and  C_5
REMARK    4  A    between atoms: C_5  and  C_7
REMARK    5  A    between atoms: O_6  and  C_7
REMARK    6  A    between atoms: O_6  and  C_9
REMARK    7  A    between atoms: O_8  and  C_11
REMARK    8  A    between atoms: O_8  and  C_13
REMARK    9  A    between atoms: C_9  and  C_11
REMARK   10  A    between atoms: O_10  and  C_15
REMARK   11  A    between atoms: O_10  and  C_17
REMARK   12  A    between atoms: O_12  and  C_19
REMARK   13  A    between atoms: O_12  and  C_21
REMARK   14  A    between atoms: C_13  and  C_15
REMARK   15  A    between atoms: O_14  and  C_23
REMARK   16  A    between atoms: O_14  and  C_25
REMARK   17  A    between atoms: O_16  and  C_27
REMARK   18  A    between atoms: O_16  and  C_29
REMARK   19  A    between atoms: C_17  and  C_19
REMARK   20  A    between atoms: O_18  and  C_31
REMARK   21  A    between atoms: O_18  and  C_33
REMARK   22  A    between atoms: O_20  and  C_35
REMARK   23  A    between atoms: O_20  and  C_37
REMARK   24  A    between atoms: C_21  and  C_23
REMARK   25  A    between atoms: C_21  and  C_61
REMARK   26  A    between atoms: O_22  and  C_39
REMARK   27  A    between atoms: O_22  and  C_41
REMARK   28  A    between atoms: O_24  and  C_43
REMARK   29  A    between atoms: O_24  and  C_45
REMARK   30  A    between atoms: C_25  and  C_27
REMARK   31  A    between atoms: O_28  and  C_63
REMARK   32  A    between atoms: O_28  and  C_64
REMARK   33  A    between atoms: C_29  and  C_31
REMARK   34  A    between atoms: O_30  and  C_65
REMARK   35  A    between atoms: O_30  and  C_66
REMARK   36  A    between atoms: O_32  and  C_67
REMARK   37  A    between atoms: O_32  and  C_68
REMARK   38  A    between atoms: C_33  and  C_35
REMARK   39  A    between atoms: O_34  and  C_69
REMARK   40  A    between atoms: O_34  and  C_70
REMARK   41  A    between atoms: O_36  and  C_71
REMARK   42  A    between atoms: O_36  and  C_72
REMARK   43  A    between atoms: C_37  and  C_39
REMARK   44  A    between atoms: O_40  and  C_74
REMARK   45  A    between atoms: O_40  and  C_75
REMARK   46  A    between atoms: C_41  and  C_43
REMARK   47  A    between atoms: O_42  and  C_76
REMARK   48  A    between atoms: O_42  and  C_77
REMARK   49  A    between atoms: O_44  and  C_78
REMARK   50  A    between atoms: O_44  and  C_79
REMARK   51  A    between atoms: C_45  and  C_47
REMARK   52  A    between atoms: O_46  and  C_80
REMARK   53  A    between atoms: O_46  and  C_81
REMARK   54  A    between atoms: C_47  and  C_49
REMARK   55  A    between atoms: O_48  and  C_82
REMARK   56  A    between atoms: O_48  and  C_83
REMARK   57  A    between atoms: C_49  and  C_51
REMARK   58  A    between atoms: C_51  and  C_53
REMARK   59  A    between atoms: C_53  and  C_54
REMARK   60  A    between atoms: C_54  and  C_55
REMARK   61  A    between atoms: C_55  and  C_56
REMARK   62  A    between atoms: C_56  and  C_57
REMARK   63  A    between atoms: C_57  and  C_58
REMARK   64  A    between atoms: C_58  and  C_59
REMARK   65  A    between atoms: C_61  and  C_62
REMARK   66  A    between atoms: C_64  and  C_65
REMARK   67  A    between atoms: C_66  and  C_67
REMARK   68  A    between atoms: C_68  and  C_69
REMARK   69  A    between atoms: C_70  and  C_71
REMARK   70  A    between atoms: C_72  and  C_73
REMARK   71  A    between atoms: C_75  and  C_76
REMARK   72  A    between atoms: C_77  and  C_78
REMARK   73  A    between atoms: C_79  and  C_80
REMARK   74  A    between atoms: C_81  and  C_82
REMARK   75  A    between atoms: C_83  and  C_84
REMARK                            x       y       z     vdW  Elec       q    Type
REMARK                         _______ _______ _______ _____ _____    ______ ____
ROOT
ATOM      1  C   UNL     1     -16.208  12.891   5.401  0.00  0.00    +0.000 C 
ENDROOT
BRANCH   1   2
ATOM      2  C   UNL     1     -15.830  14.172   4.557  0.00  0.00    +0.000 C 
BRANCH   2   4
ATOM      3  O   UNL     1     -14.202  15.184   6.161  0.00  0.00    +0.000 OA
ATOM      4  C   UNL     1     -14.396  14.549   4.793  0.00  0.00    +0.000 C 
ATOM      5  C   UNL     1     -14.061  15.707   3.851  0.00  0.00    +0.000 C 
ATOM      6  C   UNL     1     -13.780  16.829   4.852  0.00  0.00    +0.000 C 
ATOM      7  C   UNL     1     -13.344  16.209   6.149  0.00  0.00    +0.000 C 
BRANCH   6   8
ATOM      8  O   UNL     1     -14.988  17.586   4.916  0.00  0.00    +0.000 OA
BRANCH   8   9
ATOM      9  C   UNL     1     -14.810  18.950   5.248  0.00  0.00    +0.000 C 
BRANCH   9  10
ATOM     10  C   UNL     1     -16.038  19.709   4.851  0.00  0.00    +0.000 C 
BRANCH  10  11
ATOM     11  O   UNL     1     -16.369  20.635   5.858  0.00  0.00    +0.000 OA
BRANCH  11  12
ATOM     12  C   UNL     1     -17.695  21.104   5.742  0.00  0.00    +0.000 C 
BRANCH  12  13
ATOM     13  C   UNL     1     -18.625  19.909   5.701  0.00  0.00    +0.000 C 
BRANCH  13  14
ATOM     14  O   UNL     1     -19.949  20.323   5.734  0.00  0.00    +0.000 OA
BRANCH  14  15
ATOM     15  C   UNL     1     -20.866  19.302   5.729  0.00  0.00    +0.000 C 
BRANCH  15  16
ATOM     16  C   UNL     1     -20.875  18.628   7.064  0.00  0.00    +0.000 C 
BRANCH  16  17
ATOM     17  O   UNL     1     -21.977  17.748   7.185  0.00  0.00    +0.000 OA
BRANCH  17  18
ATOM     18  C   UNL     1     -21.901  16.972   8.371  0.00  0.00    +0.000 C 
BRANCH  18  19
ATOM     19  C   UNL     1     -22.392  17.772   9.554  0.00  0.00    +0.000 C 
BRANCH  19  20
ATOM     20  O   UNL     1     -21.640  17.430  10.690  0.00  0.00    +0.000 OA
BRANCH  20  21
ATOM     21  C   UNL     1     -21.489  18.567  11.527  0.00  0.00    +0.000 C 
BRANCH  21  23
ATOM     22  O   UNL     1     -19.897  20.100  12.511  0.00  0.00    +0.000 OA
ATOM     23  C   UNL     1     -20.051  18.923  11.627  0.00  0.00    +0.000 C 
ENDBRANCH  21  23
ENDBRANCH  20  21
ENDBRANCH  19  20
ENDBRANCH  18  19
ENDBRANCH  17  18
ENDBRANCH  16  17
ENDBRANCH  15  16
ENDBRANCH  14  15
ENDBRANCH  13  14
ENDBRANCH  12  13
ENDBRANCH  11  12
ENDBRANCH  10  11
ENDBRANCH   9  10
ENDBRANCH   8   9
ENDBRANCH   6   8
BRANCH   5  24
ATOM     24  O   UNL     1     -12.867  15.410   3.179  0.00  0.00    +0.000 OA
BRANCH  24  25
ATOM     25  C   UNL     1     -12.672  16.216   2.065  0.00  0.00    +0.000 C 
BRANCH  25  26
ATOM     26  C   UNL     1     -11.290  15.907   1.443  0.00  0.00    +0.000 C 
BRANCH  26  27
ATOM     27  O   UNL     1     -10.290  16.330   2.362  0.00  0.00    +0.000 OA
BRANCH  27  28
ATOM     28  C   UNL     1      -9.522  15.264   2.781  0.00  0.00    +0.000 C 
BRANCH  28  29
ATOM     29  C   UNL     1      -8.805  15.662   4.072  0.00  0.00    +0.000 C 
BRANCH  29  30
ATOM     30  O   UNL     1      -8.419  14.501   4.720  0.00  0.00    +0.000 OA
BRANCH  30  31
ATOM     31  C   UNL     1      -7.874  14.744   6.002  0.00  0.00    +0.000 C 
BRANCH  31  32
ATOM     32  C   UNL     1      -7.209  13.513   6.472  0.00  0.00    +0.000 C 
BRANCH  32  33
ATOM     33  O   UNL     1      -8.041  12.418   6.148  0.00  0.00    +0.000 OA
BRANCH  33  34
ATOM     34  C   UNL     1      -7.357  11.226   6.325  0.00  0.00    +0.000 C 
BRANCH  34  35
ATOM     35  C   UNL     1      -8.082  10.125   5.553  0.00  0.00    +0.000 C 
BRANCH  35  36
ATOM     36  O   UNL     1      -8.725   9.273   6.490  0.00  0.00    +0.000 OA
BRANCH  36  37
ATOM     37  C   UNL     1      -9.188   8.122   5.854  0.00  0.00    +0.000 C 
BRANCH  37  39
ATOM     38  O   UNL     1     -10.410   6.118   6.130  0.00  0.00    +0.000 OA
ATOM     39  C   UNL     1      -9.989   7.281   6.812  0.00  0.00    +0.000 C 
ENDBRANCH  37  39
ENDBRANCH  36  37
ENDBRANCH  35  36
ENDBRANCH  34  35
ENDBRANCH  33  34
ENDBRANCH  32  33
ENDBRANCH  31  32
ENDBRANCH  30  31
ENDBRANCH  29  30
ENDBRANCH  28  29
ENDBRANCH  27  28
ENDBRANCH  26  27
ENDBRANCH  25  26
ENDBRANCH  24  25
ENDBRANCH   5  24
ENDBRANCH   2   4
ENDBRANCH   1   2
BRANCH   1  40
ATOM     40  O   UNL     1     -15.237  11.848   5.272  0.00  0.00    +0.000 OA
BRANCH  40  41
ATOM     41  C   UNL     1     -14.665  11.388   6.477  0.00  0.00    +0.000 C 
BRANCH  41  42
ATOM     42  C   UNL     1     -13.168  11.306   6.376  0.00  0.00    +0.000 C 
BRANCH  42  43
ATOM     43  O   UNL     1     -12.770  10.294   5.523  0.00  0.00    +0.000 OA
BRANCH  43  44
ATOM     44  C   UNL     1     -13.561   9.160   5.608  0.00  0.00    +0.000 C 
BRANCH  44  45
ATOM     45  C   UNL     1     -12.969   8.059   4.787  0.00  0.00    +0.000 C 
BRANCH  45  46
ATOM     46  O   UNL     1     -13.859   7.537   3.894  0.00  0.00    +0.000 OA
BRANCH  46  47
ATOM     47  C   UNL     1     -14.182   8.434   2.832  0.00  0.00    +0.000 C 
BRANCH  47  48
ATOM     48  C   UNL     1     -13.007   8.578   1.936  0.00  0.00    +0.000 C 
BRANCH  48  49
ATOM     49  O   UNL     1     -12.389   9.807   2.203  0.00  0.00    +0.000 OA
BRANCH  49  50
ATOM     50  C   UNL     1     -13.171  10.890   1.727  0.00  0.00    +0.000 C 
BRANCH  50  51
ATOM     51  C   UNL     1     -12.329  11.729   0.856  0.00  0.00    +0.000 C 
BRANCH  51  52
ATOM     52  O   UNL     1     -12.958  12.961   0.723  0.00  0.00    +0.000 OA
BRANCH  52  53
ATOM     53  C   UNL     1     -14.222  12.852   0.075  0.00  0.00    +0.000 C 
BRANCH  53  54
ATOM     54  C   UNL     1     -15.371  12.987   1.051  0.00  0.00    +0.000 C 
ATOM     55  O   UNL     1     -16.480  12.214   0.602  0.00  0.00    +0.000 OA
ENDBRANCH  53  54
ENDBRANCH  52  53
ENDBRANCH  51  52
ENDBRANCH  50  51
ENDBRANCH  49  50
ENDBRANCH  48  49
ENDBRANCH  47  48
ENDBRANCH  46  47
ENDBRANCH  45  46
ENDBRANCH  44  45
ENDBRANCH  43  44
ENDBRANCH  42  43
ENDBRANCH  41  42
ENDBRANCH  40  41
ENDBRANCH   1  40
BRANCH   1  56
ATOM     56  C   UNL     1     -17.504  12.321   4.945  0.00  0.00    +0.000 C 
BRANCH  56  57
ATOM     57  O   UNL     1     -17.613  12.707   3.627  0.00  0.00    +0.000 OA
BRANCH  57  58
ATOM     58  C   UNL     1     -18.910  12.376   3.092  0.00  0.00    +0.000 C 
BRANCH  58  59
ATOM     59  C   UNL     1     -19.915  13.452   3.479  0.00  0.00    +0.000 C 
BRANCH  59  60
ATOM     60  O   UNL     1     -21.226  13.007   3.259  0.00  0.00    +0.000 OA
BRANCH  60  61
ATOM     61  C   UNL     1     -22.201  14.025   3.410  0.00  0.00    +0.000 C 
BRANCH  61  62
ATOM     62  C   UNL     1     -22.455  14.397   4.867  0.00  0.00    +0.000 C 
BRANCH  62  63
ATOM     63  O   UNL     1     -22.708  13.224   5.611  0.00  0.00    +0.000 OA
BRANCH  63  64
ATOM     64  C   UNL     1     -23.514  13.490   6.734  0.00  0.00    +0.000 C 
BRANCH  64  65
ATOM     65  C   UNL     1     -23.408  12.324   7.706  0.00  0.00    +0.000 C 
BRANCH  65  66
ATOM     66  O   UNL     1     -23.499  11.117   6.957  0.00  0.00    +0.000 OA
BRANCH  66  67
ATOM     67  C   UNL     1     -24.793  10.828   6.561  0.00  0.00    +0.000 C 
BRANCH  67  68
ATOM     68  C   UNL     1     -24.791   9.531   5.783  0.00  0.00    +0.000 C 
BRANCH  68  69
ATOM     69  O   UNL     1     -23.713   9.590   4.886  0.00  0.00    +0.000 OA
BRANCH  69  70
ATOM     70  C   UNL     1     -22.798   8.578   5.080  0.00  0.00    +0.000 C 
BRANCH  70  71
ATOM     71  C   UNL     1     -21.693   8.690   4.047  0.00  0.00    +0.000 C 
BRANCH  71  72
ATOM     72  O   UNL     1     -22.311   8.445   2.814  0.00  0.00    +0.000 OA
BRANCH  72  74
ATOM     73  O   UNL     1     -20.342   7.827   2.016  0.00  0.00    +0.000 OA
ATOM     74  C   UNL     1     -21.524   7.745   1.960  0.00  0.00    +0.000 C 
BRANCH  74  75
ATOM     75  C   UNL     1     -22.234   6.896   0.991  0.00  0.00    +0.000 C 
BRANCH  75  76
ATOM     76  C   UNL     1     -21.194   6.114   0.168  0.00  0.00    +0.000 C 
BRANCH  76  77
ATOM     77  C   UNL     1     -21.869   4.948  -0.528  0.00  0.00    +0.000 C 
BRANCH  77  78
ATOM     78  C   UNL     1     -21.884   3.747   0.405  0.00  0.00    +0.000 C 
BRANCH  78  79
ATOM     79  C   UNL     1     -22.554   2.601  -0.312  0.00  0.00    +0.000 C 
BRANCH  79  80
ATOM     80  C   UNL     1     -22.934   1.558   0.745  0.00  0.00    +0.000 C 
BRANCH  80  81
ATOM     81  C   UNL     1     -23.390   0.301   0.044  0.00  0.00    +0.000 C 
BRANCH  81  82
ATOM     82  C   UNL     1     -24.188  -0.557   1.021  0.00  0.00    +0.000 C 
BRANCH  82  83
ATOM     83  C   UNL     1     -24.634  -1.858   0.370  0.00  0.00    +0.000 C 
BRANCH  83  84
ATOM     84  C   UNL     1     -23.611  -2.945   0.513  0.00  0.00    +0.000 C 
ATOM     85  C   UNL     1     -23.697  -3.608   1.855  0.00  0.00    +0.000 C 
ENDBRANCH  83  84
ENDBRANCH  82  83
ENDBRANCH  81  82
ENDBRANCH  80  81
ENDBRANCH  79  80
ENDBRANCH  78  79
ENDBRANCH  77  78
ENDBRANCH  76  77
ENDBRANCH  75  76
ENDBRANCH  74  75
ENDBRANCH  72  74
ENDBRANCH  71  72
ENDBRANCH  70  71
ENDBRANCH  69  70
ENDBRANCH  68  69
ENDBRANCH  67  68
ENDBRANCH  66  67
ENDBRANCH  65  66
ENDBRANCH  64  65
ENDBRANCH  63  64
ENDBRANCH  62  63
ENDBRANCH  61  62
ENDBRANCH  60  61
ENDBRANCH  59  60
ENDBRANCH  58  59
ENDBRANCH  57  58
ENDBRANCH  56  57
ENDBRANCH   1  56
TORSDOF 75
