MODEL 1
REMARK VINA RESULT:      -8.0      0.000      0.000
REMARK  Name = human_CD1d_DDM_pred.rank_0
REMARK  16 active torsions:
REMARK  status: ('A' for Active; 'I' for Inactive)
REMARK    1  A    between atoms: O_2  and  C_23
REMARK    2  A    between atoms: O_2  and  C_24
REMARK    3  A    between atoms: C_3  and  C_5
REMARK    4  A    between atoms: C_5  and  C_7
REMARK    5  A    between atoms: C_7  and  C_9
REMARK    6  A    between atoms: O_8  and  C_27
REMARK    7  A    between atoms: O_8  and  C_30
REMARK    8  A    between atoms: C_9  and  C_11
REMARK    9  A    between atoms: C_11  and  C_13
REMARK   10  A    between atoms: C_13  and  C_15
REMARK   11  A    between atoms: C_15  and  C_17
REMARK   12  A    between atoms: C_17  and  C_19
REMARK   13  A    between atoms: C_19  and  C_21
REMARK   14  A    between atoms: C_21  and  C_23
REMARK   15  A    between atoms: C_28  and  C_29
REMARK   16  A    between atoms: C_34  and  C_35
REMARK                            x       y       z     vdW  Elec       q    Type
REMARK                         _______ _______ _______ _____ _____    ______ ____
ROOT
ATOM      1  O   UNL     1     -10.116   6.407  22.693  0.00  0.00    +0.000 OA
ATOM      2  O   UNL     1     -10.706   3.133  20.213  0.00  0.00    +0.000 OA
ATOM      3  O   UNL     1      -8.203   3.563  21.497  0.00  0.00    +0.000 OA
ATOM      4  C   UNL     1      -8.966   5.644  22.417  0.00  0.00    +0.000 C 
ATOM      5  C   UNL     1      -9.361   4.251  21.890  0.00  0.00    +0.000 C 
ATOM      6  C   UNL     1     -10.312   4.398  20.676  0.00  0.00    +0.000 C 
ATOM      7  C   UNL     1     -11.511   5.237  21.111  0.00  0.00    +0.000 C 
ATOM      8  C   UNL     1     -10.893   6.606  21.430  0.00  0.00    +0.000 C 
ENDROOT
BRANCH   8  10
ATOM      9  O   UNL     1     -11.359   8.841  20.907  0.00  0.00    +0.000 OA
ATOM     10  C   UNL     1     -11.856   7.722  21.717  0.00  0.00    +0.000 C 
ENDBRANCH   8  10
BRANCH   7  11
ATOM     11  O   UNL     1     -12.599   5.272  20.218  0.00  0.00    +0.000 OA
BRANCH  11  16
ATOM     12  O   UNL     1     -14.733   4.471  20.782  0.00  0.00    +0.000 OA
ATOM     13  O   UNL     1     -15.905   7.141  18.532  0.00  0.00    +0.000 OA
ATOM     14  O   UNL     1     -14.729   5.234  16.742  0.00  0.00    +0.000 OA
ATOM     15  O   UNL     1     -12.761   3.548  17.819  0.00  0.00    +0.000 OA
ATOM     16  C   UNL     1     -13.525   4.162  20.066  0.00  0.00    +0.000 C 
ATOM     17  C   UNL     1     -13.889   3.954  18.590  0.00  0.00    +0.000 C 
ATOM     18  C   UNL     1     -14.348   5.338  18.087  0.00  0.00    +0.000 C 
ATOM     19  C   UNL     1     -15.570   5.806  18.942  0.00  0.00    +0.000 C 
ATOM     20  C   UNL     1     -15.230   5.799  20.437  0.00  0.00    +0.000 C 
BRANCH  20  22
ATOM     21  O   UNL     1     -16.196   7.159  22.084  0.00  0.00    +0.000 OA
ATOM     22  C   UNL     1     -16.439   6.040  21.286  0.00  0.00    +0.000 C 
ENDBRANCH  20  22
ENDBRANCH  11  16
ENDBRANCH   7  11
BRANCH   4  23
ATOM     23  O   UNL     1      -8.243   5.499  23.599  0.00  0.00    +0.000 OA
BRANCH  23  24
ATOM     24  C   UNL     1      -7.179   6.451  23.693  0.00  0.00    +0.000 C 
BRANCH  24  25
ATOM     25  C   UNL     1      -5.828   5.722  23.830  0.00  0.00    +0.000 C 
BRANCH  25  26
ATOM     26  C   UNL     1      -5.292   5.399  22.436  0.00  0.00    +0.000 C 
BRANCH  26  27
ATOM     27  C   UNL     1      -4.029   6.240  22.144  0.00  0.00    +0.000 C 
BRANCH  27  28
ATOM     28  C   UNL     1      -3.074   6.234  23.323  0.00  0.00    +0.000 C 
BRANCH  28  29
ATOM     29  C   UNL     1      -2.177   5.010  23.253  0.00  0.00    +0.000 C 
BRANCH  29  30
ATOM     30  C   UNL     1      -2.482   4.057  24.374  0.00  0.00    +0.000 C 
BRANCH  30  31
ATOM     31  C   UNL     1      -2.215   4.709  25.680  0.00  0.00    +0.000 C 
BRANCH  31  32
ATOM     32  C   UNL     1      -0.753   4.670  26.043  0.00  0.00    +0.000 C 
BRANCH  32  33
ATOM     33  C   UNL     1      -0.331   6.019  26.598  0.00  0.00    +0.000 C 
BRANCH  33  35
ATOM     34  C   UNL     1       1.123   6.161  24.602  0.00  0.00    +0.000 C 
ATOM     35  C   UNL     1       0.191   6.916  25.519  0.00  0.00    +0.000 C 
ENDBRANCH  33  35
ENDBRANCH  32  33
ENDBRANCH  31  32
ENDBRANCH  30  31
ENDBRANCH  29  30
ENDBRANCH  28  29
ENDBRANCH  27  28
ENDBRANCH  26  27
ENDBRANCH  25  26
ENDBRANCH  24  25
ENDBRANCH  23  24
ENDBRANCH   4  23
TORSDOF 16
ENDMDL
MODEL 2
REMARK VINA RESULT:      -7.9      1.889      2.772
REMARK  Name = human_CD1d_DDM_pred.rank_0
REMARK  16 active torsions:
REMARK  status: ('A' for Active; 'I' for Inactive)
REMARK    1  A    between atoms: O_2  and  C_23
REMARK    2  A    between atoms: O_2  and  C_24
REMARK    3  A    between atoms: C_3  and  C_5
REMARK    4  A    between atoms: C_5  and  C_7
REMARK    5  A    between atoms: C_7  and  C_9
REMARK    6  A    between atoms: O_8  and  C_27
REMARK    7  A    between atoms: O_8  and  C_30
REMARK    8  A    between atoms: C_9  and  C_11
REMARK    9  A    between atoms: C_11  and  C_13
REMARK   10  A    between atoms: C_13  and  C_15
REMARK   11  A    between atoms: C_15  and  C_17
REMARK   12  A    between atoms: C_17  and  C_19
REMARK   13  A    between atoms: C_19  and  C_21
REMARK   14  A    between atoms: C_21  and  C_23
REMARK   15  A    between atoms: C_28  and  C_29
REMARK   16  A    between atoms: C_34  and  C_35
REMARK                            x       y       z     vdW  Elec       q    Type
REMARK                         _______ _______ _______ _____ _____    ______ ____
ROOT
ATOM      1  O   UNL     1     -10.601   5.839  22.187  0.00  0.00    +0.000 OA
ATOM      2  O   UNL     1     -13.392   4.033  19.703  0.00  0.00    +0.000 OA
ATOM      3  O   UNL     1     -10.820   2.882  20.092  0.00  0.00    +0.000 OA
ATOM      4  C   UNL     1     -10.130   4.738  21.449  0.00  0.00    +0.000 C 
ATOM      5  C   UNL     1     -11.310   3.892  20.934  0.00  0.00    +0.000 C 
ATOM      6  C   UNL     1     -12.295   4.790  20.143  0.00  0.00    +0.000 C 
ATOM      7  C   UNL     1     -12.729   5.935  21.055  0.00  0.00    +0.000 C 
ATOM      8  C   UNL     1     -11.428   6.713  21.297  0.00  0.00    +0.000 C 
ENDROOT
BRANCH   8  10
ATOM      9  O   UNL     1     -11.412   9.031  20.965  0.00  0.00    +0.000 OA
ATOM     10  C   UNL     1     -11.559   8.022  22.020  0.00  0.00    +0.000 C 
ENDBRANCH   8  10
BRANCH   7  11
ATOM     11  O   UNL     1     -13.810   6.713  20.598  0.00  0.00    +0.000 OA
BRANCH  11  16
ATOM     12  O   UNL     1     -15.336   7.447  22.224  0.00  0.00    +0.000 OA
ATOM     13  O   UNL     1     -15.294  10.582  20.292  0.00  0.00    +0.000 OA
ATOM     14  O   UNL     1     -16.694   8.763  18.573  0.00  0.00    +0.000 OA
ATOM     15  O   UNL     1     -16.157   6.032  18.930  0.00  0.00    +0.000 OA
ATOM     16  C   UNL     1     -15.161   6.557  21.109  0.00  0.00    +0.000 C 
ATOM     17  C   UNL     1     -16.195   6.930  20.038  0.00  0.00    +0.000 C 
ATOM     18  C   UNL     1     -15.780   8.329  19.542  0.00  0.00    +0.000 C 
ATOM     19  C   UNL     1     -15.793   9.318  20.754  0.00  0.00    +0.000 C 
ATOM     20  C   UNL     1     -14.907   8.803  21.894  0.00  0.00    +0.000 C 
BRANCH  20  22
ATOM     21  O   UNL     1     -14.390   8.972  24.174  0.00  0.00    +0.000 OA
ATOM     22  C   UNL     1     -15.066   9.619  23.139  0.00  0.00    +0.000 C 
ENDBRANCH  20  22
ENDBRANCH  11  16
ENDBRANCH   7  11
BRANCH   4  23
ATOM     23  O   UNL     1      -9.337   3.957  22.287  0.00  0.00    +0.000 OA
BRANCH  23  24
ATOM     24  C   UNL     1      -8.261   4.708  22.856  0.00  0.00    +0.000 C 
BRANCH  24  25
ATOM     25  C   UNL     1      -7.015   4.612  21.954  0.00  0.00    +0.000 C 
BRANCH  25  26
ATOM     26  C   UNL     1      -5.767   4.544  22.834  0.00  0.00    +0.000 C 
BRANCH  26  27
ATOM     27  C   UNL     1      -4.559   4.051  22.006  0.00  0.00    +0.000 C 
BRANCH  27  28
ATOM     28  C   UNL     1      -3.508   5.135  21.861  0.00  0.00    +0.000 C 
BRANCH  28  29
ATOM     29  C   UNL     1      -3.790   6.261  22.841  0.00  0.00    +0.000 C 
BRANCH  29  30
ATOM     30  C   UNL     1      -2.589   6.536  23.701  0.00  0.00    +0.000 C 
BRANCH  30  31
ATOM     31  C   UNL     1      -1.521   5.548  23.411  0.00  0.00    +0.000 C 
BRANCH  31  32
ATOM     32  C   UNL     1      -0.205   5.938  24.032  0.00  0.00    +0.000 C 
BRANCH  32  33
ATOM     33  C   UNL     1      -0.260   7.392  24.470  0.00  0.00    +0.000 C 
BRANCH  33  35
ATOM     34  C   UNL     1       1.110   9.452  24.491  0.00  0.00    +0.000 C 
ATOM     35  C   UNL     1       0.706   8.234  23.695  0.00  0.00    +0.000 C 
ENDBRANCH  33  35
ENDBRANCH  32  33
ENDBRANCH  31  32
ENDBRANCH  30  31
ENDBRANCH  29  30
ENDBRANCH  28  29
ENDBRANCH  27  28
ENDBRANCH  26  27
ENDBRANCH  25  26
ENDBRANCH  24  25
ENDBRANCH  23  24
ENDBRANCH   4  23
TORSDOF 16
ENDMDL
MODEL 3
REMARK VINA RESULT:      -7.4      2.994      5.984
REMARK  Name = human_CD1d_DDM_pred.rank_0
REMARK  16 active torsions:
REMARK  status: ('A' for Active; 'I' for Inactive)
REMARK    1  A    between atoms: O_2  and  C_23
REMARK    2  A    between atoms: O_2  and  C_24
REMARK    3  A    between atoms: C_3  and  C_5
REMARK    4  A    between atoms: C_5  and  C_7
REMARK    5  A    between atoms: C_7  and  C_9
REMARK    6  A    between atoms: O_8  and  C_27
REMARK    7  A    between atoms: O_8  and  C_30
REMARK    8  A    between atoms: C_9  and  C_11
REMARK    9  A    between atoms: C_11  and  C_13
REMARK   10  A    between atoms: C_13  and  C_15
REMARK   11  A    between atoms: C_15  and  C_17
REMARK   12  A    between atoms: C_17  and  C_19
REMARK   13  A    between atoms: C_19  and  C_21
REMARK   14  A    between atoms: C_21  and  C_23
REMARK   15  A    between atoms: C_28  and  C_29
REMARK   16  A    between atoms: C_34  and  C_35
REMARK                            x       y       z     vdW  Elec       q    Type
REMARK                         _______ _______ _______ _____ _____    ______ ____
ROOT
ATOM      1  O   UNL     1     -12.692   6.497  21.250  0.00  0.00    +0.000 OA
ATOM      2  O   UNL     1     -16.772   6.878  20.596  0.00  0.00    +0.000 OA
ATOM      3  O   UNL     1     -15.240   4.938  19.187  0.00  0.00    +0.000 OA
ATOM      4  C   UNL     1     -13.208   5.728  20.191  0.00  0.00    +0.000 C 
ATOM      5  C   UNL     1     -14.737   5.592  20.323  0.00  0.00    +0.000 C 
ATOM      6  C   UNL     1     -15.382   6.996  20.438  0.00  0.00    +0.000 C 
ATOM      7  C   UNL     1     -14.740   7.717  21.620  0.00  0.00    +0.000 C 
ATOM      8  C   UNL     1     -13.274   7.875  21.190  0.00  0.00    +0.000 C 
ENDROOT
BRANCH   8  10
ATOM      9  O   UNL     1     -11.117   8.767  21.379  0.00  0.00    +0.000 OA
ATOM     10  C   UNL     1     -12.407   8.722  22.077  0.00  0.00    +0.000 C 
ENDBRANCH   8  10
BRANCH   7  11
ATOM     11  O   UNL     1     -15.368   8.907  22.034  0.00  0.00    +0.000 OA
BRANCH  11  16
ATOM     12  O   UNL     1     -15.869   9.027  24.324  0.00  0.00    +0.000 OA
ATOM     13  O   UNL     1     -14.655  12.490  24.014  0.00  0.00    +0.000 OA
ATOM     14  O   UNL     1     -17.147  12.532  22.597  0.00  0.00    +0.000 OA
ATOM     15  O   UNL     1     -18.038  10.086  21.550  0.00  0.00    +0.000 OA
ATOM     16  C   UNL     1     -16.444   8.929  23.011  0.00  0.00    +0.000 C 
ATOM     17  C   UNL     1     -17.349  10.149  22.797  0.00  0.00    +0.000 C 
ATOM     18  C   UNL     1     -16.396  11.361  22.762  0.00  0.00    +0.000 C 
ATOM     19  C   UNL     1     -15.615  11.427  24.115  0.00  0.00    +0.000 C 
ATOM     20  C   UNL     1     -14.889  10.106  24.397  0.00  0.00    +0.000 C 
BRANCH  20  22
ATOM     21  O   UNL     1     -13.103   9.371  25.724  0.00  0.00    +0.000 OA
ATOM     22  C   UNL     1     -14.310  10.069  25.777  0.00  0.00    +0.000 C 
ENDBRANCH  20  22
ENDBRANCH  11  16
ENDBRANCH   7  11
BRANCH   4  23
ATOM     23  O   UNL     1     -12.628   4.462  20.247  0.00  0.00    +0.000 OA
BRANCH  23  24
ATOM     24  C   UNL     1     -11.393   4.473  20.969  0.00  0.00    +0.000 C 
BRANCH  24  25
ATOM     25  C   UNL     1     -10.427   3.427  20.377  0.00  0.00    +0.000 C 
BRANCH  25  26
ATOM     26  C   UNL     1      -9.013   3.716  20.877  0.00  0.00    +0.000 C 
BRANCH  26  27
ATOM     27  C   UNL     1      -9.054   4.176  22.353  0.00  0.00    +0.000 C 
BRANCH  27  28
ATOM     28  C   UNL     1      -7.895   3.600  23.144  0.00  0.00    +0.000 C 
BRANCH  28  29
ATOM     29  C   UNL     1      -7.073   2.680  22.258  0.00  0.00    +0.000 C 
BRANCH  29  30
ATOM     30  C   UNL     1      -5.603   2.950  22.422  0.00  0.00    +0.000 C 
BRANCH  30  31
ATOM     31  C   UNL     1      -5.208   4.117  21.595  0.00  0.00    +0.000 C 
BRANCH  31  32
ATOM     32  C   UNL     1      -3.870   4.675  22.008  0.00  0.00    +0.000 C 
BRANCH  32  33
ATOM     33  C   UNL     1      -4.020   6.145  22.359  0.00  0.00    +0.000 C 
BRANCH  33  35
ATOM     34  C   UNL     1      -5.567   7.418  23.811  0.00  0.00    +0.000 C 
ATOM     35  C   UNL     1      -5.451   6.504  22.615  0.00  0.00    +0.000 C 
ENDBRANCH  33  35
ENDBRANCH  32  33
ENDBRANCH  31  32
ENDBRANCH  30  31
ENDBRANCH  29  30
ENDBRANCH  28  29
ENDBRANCH  27  28
ENDBRANCH  26  27
ENDBRANCH  25  26
ENDBRANCH  24  25
ENDBRANCH  23  24
ENDBRANCH   4  23
TORSDOF 16
ENDMDL
MODEL 4
REMARK VINA RESULT:      -7.4      6.601      9.827
REMARK  Name = human_CD1d_DDM_pred.rank_0
REMARK  16 active torsions:
REMARK  status: ('A' for Active; 'I' for Inactive)
REMARK    1  A    between atoms: O_2  and  C_23
REMARK    2  A    between atoms: O_2  and  C_24
REMARK    3  A    between atoms: C_3  and  C_5
REMARK    4  A    between atoms: C_5  and  C_7
REMARK    5  A    between atoms: C_7  and  C_9
REMARK    6  A    between atoms: O_8  and  C_27
REMARK    7  A    between atoms: O_8  and  C_30
REMARK    8  A    between atoms: C_9  and  C_11
REMARK    9  A    between atoms: C_11  and  C_13
REMARK   10  A    between atoms: C_13  and  C_15
REMARK   11  A    between atoms: C_15  and  C_17
REMARK   12  A    between atoms: C_17  and  C_19
REMARK   13  A    between atoms: C_19  and  C_21
REMARK   14  A    between atoms: C_21  and  C_23
REMARK   15  A    between atoms: C_28  and  C_29
REMARK   16  A    between atoms: C_34  and  C_35
REMARK                            x       y       z     vdW  Elec       q    Type
REMARK                         _______ _______ _______ _____ _____    ______ ____
ROOT
ATOM      1  O   UNL     1     -14.180   4.417  18.316  0.00  0.00    +0.000 OA
ATOM      2  O   UNL     1     -11.307   5.339  21.164  0.00  0.00    +0.000 OA
ATOM      3  O   UNL     1     -11.165   2.919  19.674  0.00  0.00    +0.000 OA
ATOM      4  C   UNL     1     -13.254   3.394  18.592  0.00  0.00    +0.000 C 
ATOM      5  C   UNL     1     -12.009   3.973  19.290  0.00  0.00    +0.000 C 
ATOM      6  C   UNL     1     -12.434   4.778  20.544  0.00  0.00    +0.000 C 
ATOM      7  C   UNL     1     -13.429   5.849  20.105  0.00  0.00    +0.000 C 
ATOM      8  C   UNL     1     -14.631   5.037  19.601  0.00  0.00    +0.000 C 
ENDROOT
BRANCH   8  10
ATOM      9  O   UNL     1     -15.427   6.760  18.229  0.00  0.00    +0.000 OA
ATOM     10  C   UNL     1     -15.868   5.818  19.264  0.00  0.00    +0.000 C 
ENDBRANCH   8  10
BRANCH   7  11
ATOM     11  O   UNL     1     -13.738   6.835  21.062  0.00  0.00    +0.000 OA
BRANCH  11  16
ATOM     12  O   UNL     1     -14.403   9.013  20.490  0.00  0.00    +0.000 OA
ATOM     13  O   UNL     1     -16.377   8.808  23.593  0.00  0.00    +0.000 OA
ATOM     14  O   UNL     1     -13.674   8.966  24.536  0.00  0.00    +0.000 OA
ATOM     15  O   UNL     1     -11.676   8.085  22.775  0.00  0.00    +0.000 OA
ATOM     16  C   UNL     1     -13.296   8.214  20.939  0.00  0.00    +0.000 C 
ATOM     17  C   UNL     1     -12.836   8.761  22.298  0.00  0.00    +0.000 C 
ATOM     18  C   UNL     1     -14.000   8.470  23.267  0.00  0.00    +0.000 C 
ATOM     19  C   UNL     1     -15.286   9.187  22.740  0.00  0.00    +0.000 C 
ATOM     20  C   UNL     1     -15.595   8.770  21.297  0.00  0.00    +0.000 C 
BRANCH  20  22
ATOM     21  O   UNL     1     -16.552   9.568  19.312  0.00  0.00    +0.000 OA
ATOM     22  C   UNL     1     -16.693   9.595  20.700  0.00  0.00    +0.000 C 
ENDBRANCH  20  22
ENDBRANCH  11  16
ENDBRANCH   7  11
BRANCH   4  23
ATOM     23  O   UNL     1     -12.874   2.810  17.386  0.00  0.00    +0.000 OA
BRANCH  23  24
ATOM     24  C   UNL     1     -12.067   3.689  16.598  0.00  0.00    +0.000 C 
BRANCH  24  25
ATOM     25  C   UNL     1     -12.514   3.637  15.124  0.00  0.00    +0.000 C 
BRANCH  25  26
ATOM     26  C   UNL     1     -11.453   2.901  14.307  0.00  0.00    +0.000 C 
BRANCH  26  27
ATOM     27  C   UNL     1     -10.048   3.173  14.891  0.00  0.00    +0.000 C 
BRANCH  27  28
ATOM     28  C   UNL     1      -9.165   3.899  13.894  0.00  0.00    +0.000 C 
BRANCH  28  29
ATOM     29  C   UNL     1     -10.009   4.836  13.046  0.00  0.00    +0.000 C 
BRANCH  29  30
ATOM     30  C   UNL     1      -9.220   5.356  11.877  0.00  0.00    +0.000 C 
BRANCH  30  31
ATOM     31  C   UNL     1      -8.780   4.227  11.021  0.00  0.00    +0.000 C 
BRANCH  31  32
ATOM     32  C   UNL     1      -9.373   4.301   9.637  0.00  0.00    +0.000 C 
BRANCH  32  33
ATOM     33  C   UNL     1     -10.573   5.232   9.648  0.00  0.00    +0.000 C 
BRANCH  33  35
ATOM     34  C   UNL     1     -12.444   6.188   8.341  0.00  0.00    +0.000 C 
ATOM     35  C   UNL     1     -11.296   5.208   8.336  0.00  0.00    +0.000 C 
ENDBRANCH  33  35
ENDBRANCH  32  33
ENDBRANCH  31  32
ENDBRANCH  30  31
ENDBRANCH  29  30
ENDBRANCH  28  29
ENDBRANCH  27  28
ENDBRANCH  26  27
ENDBRANCH  25  26
ENDBRANCH  24  25
ENDBRANCH  23  24
ENDBRANCH   4  23
TORSDOF 16
ENDMDL
MODEL 5
REMARK VINA RESULT:      -7.2      7.285     10.440
REMARK  Name = human_CD1d_DDM_pred.rank_0
REMARK  16 active torsions:
REMARK  status: ('A' for Active; 'I' for Inactive)
REMARK    1  A    between atoms: O_2  and  C_23
REMARK    2  A    between atoms: O_2  and  C_24
REMARK    3  A    between atoms: C_3  and  C_5
REMARK    4  A    between atoms: C_5  and  C_7
REMARK    5  A    between atoms: C_7  and  C_9
REMARK    6  A    between atoms: O_8  and  C_27
REMARK    7  A    between atoms: O_8  and  C_30
REMARK    8  A    between atoms: C_9  and  C_11
REMARK    9  A    between atoms: C_11  and  C_13
REMARK   10  A    between atoms: C_13  and  C_15
REMARK   11  A    between atoms: C_15  and  C_17
REMARK   12  A    between atoms: C_17  and  C_19
REMARK   13  A    between atoms: C_19  and  C_21
REMARK   14  A    between atoms: C_21  and  C_23
REMARK   15  A    between atoms: C_28  and  C_29
REMARK   16  A    between atoms: C_34  and  C_35
REMARK                            x       y       z     vdW  Elec       q    Type
REMARK                         _______ _______ _______ _____ _____    ______ ____
ROOT
ATOM      1  O   UNL     1      -9.886   3.791  13.232  0.00  0.00    +0.000 OA
ATOM      2  O   UNL     1     -13.045   2.300  10.990  0.00  0.00    +0.000 OA
ATOM      3  O   UNL     1     -12.201   0.997  13.375  0.00  0.00    +0.000 OA
ATOM      4  C   UNL     1     -10.381   2.540  13.644  0.00  0.00    +0.000 C 
ATOM      5  C   UNL     1     -11.788   2.302  13.063  0.00  0.00    +0.000 C 
ATOM      6  C   UNL     1     -11.758   2.479  11.523  0.00  0.00    +0.000 C 
ATOM      7  C   UNL     1     -11.209   3.870  11.217  0.00  0.00    +0.000 C 
ATOM      8  C   UNL     1      -9.767   3.810  11.741  0.00  0.00    +0.000 C 
ENDROOT
BRANCH   8  10
ATOM      9  O   UNL     1      -9.179   5.951  12.483  0.00  0.00    +0.000 OA
ATOM     10  C   UNL     1      -8.891   4.985  11.417  0.00  0.00    +0.000 C 
ENDBRANCH   8  10
BRANCH   7  11
ATOM     11  O   UNL     1     -11.338   4.306   9.884  0.00  0.00    +0.000 OA
BRANCH  11  16
ATOM     12  O   UNL     1     -11.853   2.791   8.165  0.00  0.00    +0.000 OA
ATOM     13  O   UNL     1     -13.723   5.631   6.750  0.00  0.00    +0.000 OA
ATOM     14  O   UNL     1     -10.984   6.405   6.407  0.00  0.00    +0.000 OA
ATOM     15  O   UNL     1      -9.124   5.257   8.167  0.00  0.00    +0.000 OA
ATOM     16  C   UNL     1     -10.795   3.562   8.759  0.00  0.00    +0.000 C 
ATOM     17  C   UNL     1     -10.245   4.516   7.690  0.00  0.00    +0.000 C 
ATOM     18  C   UNL     1     -11.392   5.506   7.402  0.00  0.00    +0.000 C 
ATOM     19  C   UNL     1     -12.637   4.703   6.901  0.00  0.00    +0.000 C 
ATOM     20  C   UNL     1     -13.030   3.614   7.906  0.00  0.00    +0.000 C 
BRANCH  20  22
ATOM     21  O   UNL     1     -13.723   2.354   6.055  0.00  0.00    +0.000 OA
ATOM     22  C   UNL     1     -14.081   2.700   7.359  0.00  0.00    +0.000 C 
ENDBRANCH  20  22
ENDBRANCH  11  16
ENDBRANCH   7  11
BRANCH   4  23
ATOM     23  O   UNL     1     -10.453   2.534  15.035  0.00  0.00    +0.000 OA
BRANCH  23  24
ATOM     24  C   UNL     1     -11.346   3.537  15.528  0.00  0.00    +0.000 C 
BRANCH  24  25
ATOM     25  C   UNL     1     -12.319   2.920  16.552  0.00  0.00    +0.000 C 
BRANCH  25  26
ATOM     26  C   UNL     1     -12.511   3.899  17.709  0.00  0.00    +0.000 C 
BRANCH  26  27
ATOM     27  C   UNL     1     -11.712   3.426  18.945  0.00  0.00    +0.000 C 
BRANCH  27  28
ATOM     28  C   UNL     1     -12.072   4.232  20.178  0.00  0.00    +0.000 C 
BRANCH  28  29
ATOM     29  C   UNL     1     -10.809   4.624  20.925  0.00  0.00    +0.000 C 
BRANCH  29  30
ATOM     30  C   UNL     1      -9.803   3.507  20.900  0.00  0.00    +0.000 C 
BRANCH  30  31
ATOM     31  C   UNL     1      -8.464   4.039  20.548  0.00  0.00    +0.000 C 
BRANCH  31  32
ATOM     32  C   UNL     1      -7.624   4.311  21.769  0.00  0.00    +0.000 C 
BRANCH  32  33
ATOM     33  C   UNL     1      -7.370   3.011  22.512  0.00  0.00    +0.000 C 
BRANCH  33  35
ATOM     34  C   UNL     1      -5.092   3.851  22.037  0.00  0.00    +0.000 C 
ATOM     35  C   UNL     1      -5.905   2.748  22.671  0.00  0.00    +0.000 C 
ENDBRANCH  33  35
ENDBRANCH  32  33
ENDBRANCH  31  32
ENDBRANCH  30  31
ENDBRANCH  29  30
ENDBRANCH  28  29
ENDBRANCH  27  28
ENDBRANCH  26  27
ENDBRANCH  25  26
ENDBRANCH  24  25
ENDBRANCH  23  24
ENDBRANCH   4  23
TORSDOF 16
ENDMDL
MODEL 6
REMARK VINA RESULT:      -7.2      1.926      3.441
REMARK  Name = human_CD1d_DDM_pred.rank_0
REMARK  16 active torsions:
REMARK  status: ('A' for Active; 'I' for Inactive)
REMARK    1  A    between atoms: O_2  and  C_23
REMARK    2  A    between atoms: O_2  and  C_24
REMARK    3  A    between atoms: C_3  and  C_5
REMARK    4  A    between atoms: C_5  and  C_7
REMARK    5  A    between atoms: C_7  and  C_9
REMARK    6  A    between atoms: O_8  and  C_27
REMARK    7  A    between atoms: O_8  and  C_30
REMARK    8  A    between atoms: C_9  and  C_11
REMARK    9  A    between atoms: C_11  and  C_13
REMARK   10  A    between atoms: C_13  and  C_15
REMARK   11  A    between atoms: C_15  and  C_17
REMARK   12  A    between atoms: C_17  and  C_19
REMARK   13  A    between atoms: C_19  and  C_21
REMARK   14  A    between atoms: C_21  and  C_23
REMARK   15  A    between atoms: C_28  and  C_29
REMARK   16  A    between atoms: C_34  and  C_35
REMARK                            x       y       z     vdW  Elec       q    Type
REMARK                         _______ _______ _______ _____ _____    ______ ____
ROOT
ATOM      1  O   UNL     1     -11.148   5.256  20.877  0.00  0.00    +0.000 OA
ATOM      2  O   UNL     1     -12.868   8.548  22.729  0.00  0.00    +0.000 OA
ATOM      3  O   UNL     1     -10.625   7.229  23.880  0.00  0.00    +0.000 OA
ATOM      4  C   UNL     1     -10.653   5.555  22.160  0.00  0.00    +0.000 C 
ATOM      5  C   UNL     1     -11.011   7.002  22.550  0.00  0.00    +0.000 C 
ATOM      6  C   UNL     1     -12.539   7.221  22.411  0.00  0.00    +0.000 C 
ATOM      7  C   UNL     1     -12.940   6.868  20.981  0.00  0.00    +0.000 C 
ATOM      8  C   UNL     1     -12.641   5.365  20.886  0.00  0.00    +0.000 C 
ENDROOT
BRANCH   8  10
ATOM      9  O   UNL     1     -11.990   3.788  19.281  0.00  0.00    +0.000 OA
ATOM     10  C   UNL     1     -13.107   4.670  19.639  0.00  0.00    +0.000 C 
ENDBRANCH   8  10
BRANCH   7  11
ATOM     11  O   UNL     1     -14.243   7.239  20.595  0.00  0.00    +0.000 OA
BRANCH  11  16
ATOM     12  O   UNL     1     -15.968   7.230  22.187  0.00  0.00    +0.000 OA
ATOM     13  O   UNL     1     -17.149  10.198  20.354  0.00  0.00    +0.000 OA
ATOM     14  O   UNL     1     -17.665   8.046  18.532  0.00  0.00    +0.000 OA
ATOM     15  O   UNL     1     -16.084   5.746  18.824  0.00  0.00    +0.000 OA
ATOM     16  C   UNL     1     -15.428   6.532  21.053  0.00  0.00    +0.000 C 
ATOM     17  C   UNL     1     -16.502   6.505  19.957  0.00  0.00    +0.000 C 
ATOM     18  C   UNL     1     -16.674   7.973  19.520  0.00  0.00    +0.000 C 
ATOM     19  C   UNL     1     -17.108   8.821  20.759  0.00  0.00    +0.000 C 
ATOM     20  C   UNL     1     -16.113   8.657  21.914  0.00  0.00    +0.000 C 
BRANCH  20  22
ATOM     21  O   UNL     1     -15.854   8.794  24.240  0.00  0.00    +0.000 OA
ATOM     22  C   UNL     1     -16.612   9.287  23.177  0.00  0.00    +0.000 C 
ENDBRANCH  20  22
ENDBRANCH  11  16
ENDBRANCH   7  11
BRANCH   4  23
ATOM     23  O   UNL     1      -9.267   5.416  22.136  0.00  0.00    +0.000 OA
BRANCH  23  24
ATOM     24  C   UNL     1      -8.869   4.043  22.078  0.00  0.00    +0.000 C 
BRANCH  24  25
ATOM     25  C   UNL     1      -7.703   3.873  21.085  0.00  0.00    +0.000 C 
BRANCH  25  26
ATOM     26  C   UNL     1      -6.855   2.676  21.513  0.00  0.00    +0.000 C 
BRANCH  26  27
ATOM     27  C   UNL     1      -5.985   3.050  22.735  0.00  0.00    +0.000 C 
BRANCH  27  28
ATOM     28  C   UNL     1      -5.306   4.392  22.542  0.00  0.00    +0.000 C 
BRANCH  28  29
ATOM     29  C   UNL     1      -4.387   4.336  21.334  0.00  0.00    +0.000 C 
BRANCH  29  30
ATOM     30  C   UNL     1      -2.971   4.657  21.722  0.00  0.00    +0.000 C 
BRANCH  30  31
ATOM     31  C   UNL     1      -2.927   5.135  23.126  0.00  0.00    +0.000 C 
BRANCH  31  32
ATOM     32  C   UNL     1      -1.514   5.320  23.617  0.00  0.00    +0.000 C 
BRANCH  32  33
ATOM     33  C   UNL     1      -1.303   6.767  24.027  0.00  0.00    +0.000 C 
BRANCH  33  35
ATOM     34  C   UNL     1       1.028   6.242  24.670  0.00  0.00    +0.000 C 
ATOM     35  C   UNL     1       0.131   7.172  23.887  0.00  0.00    +0.000 C 
ENDBRANCH  33  35
ENDBRANCH  32  33
ENDBRANCH  31  32
ENDBRANCH  30  31
ENDBRANCH  29  30
ENDBRANCH  28  29
ENDBRANCH  27  28
ENDBRANCH  26  27
ENDBRANCH  25  26
ENDBRANCH  24  25
ENDBRANCH  23  24
ENDBRANCH   4  23
TORSDOF 16
ENDMDL
MODEL 7
REMARK VINA RESULT:      -7.2      8.459     12.291
REMARK  Name = human_CD1d_DDM_pred.rank_0
REMARK  16 active torsions:
REMARK  status: ('A' for Active; 'I' for Inactive)
REMARK    1  A    between atoms: O_2  and  C_23
REMARK    2  A    between atoms: O_2  and  C_24
REMARK    3  A    between atoms: C_3  and  C_5
REMARK    4  A    between atoms: C_5  and  C_7
REMARK    5  A    between atoms: C_7  and  C_9
REMARK    6  A    between atoms: O_8  and  C_27
REMARK    7  A    between atoms: O_8  and  C_30
REMARK    8  A    between atoms: C_9  and  C_11
REMARK    9  A    between atoms: C_11  and  C_13
REMARK   10  A    between atoms: C_13  and  C_15
REMARK   11  A    between atoms: C_15  and  C_17
REMARK   12  A    between atoms: C_17  and  C_19
REMARK   13  A    between atoms: C_19  and  C_21
REMARK   14  A    between atoms: C_21  and  C_23
REMARK   15  A    between atoms: C_28  and  C_29
REMARK   16  A    between atoms: C_34  and  C_35
REMARK                            x       y       z     vdW  Elec       q    Type
REMARK                         _______ _______ _______ _____ _____    ______ ____
ROOT
ATOM      1  O   UNL     1      -9.881   3.776  13.083  0.00  0.00    +0.000 OA
ATOM      2  O   UNL     1     -13.072   2.274  10.897  0.00  0.00    +0.000 OA
ATOM      3  O   UNL     1     -12.172   0.965  13.258  0.00  0.00    +0.000 OA
ATOM      4  C   UNL     1     -10.359   2.519  13.498  0.00  0.00    +0.000 C 
ATOM      5  C   UNL     1     -11.775   2.274  12.944  0.00  0.00    +0.000 C 
ATOM      6  C   UNL     1     -11.776   2.459  11.405  0.00  0.00    +0.000 C 
ATOM      7  C   UNL     1     -11.244   3.855  11.095  0.00  0.00    +0.000 C 
ATOM      8  C   UNL     1      -9.791   3.803  11.590  0.00  0.00    +0.000 C 
ENDROOT
BRANCH   8  10
ATOM      9  O   UNL     1      -9.088   5.882  12.407  0.00  0.00    +0.000 OA
ATOM     10  C   UNL     1      -8.930   4.986  11.255  0.00  0.00    +0.000 C 
ENDBRANCH   8  10
BRANCH   7  11
ATOM     11  O   UNL     1     -11.402   4.297   9.767  0.00  0.00    +0.000 OA
BRANCH  11  16
ATOM     12  O   UNL     1     -11.911   2.772   8.056  0.00  0.00    +0.000 OA
ATOM     13  O   UNL     1     -13.890   5.560   6.689  0.00  0.00    +0.000 OA
ATOM     14  O   UNL     1     -11.182   6.411   6.289  0.00  0.00    +0.000 OA
ATOM     15  O   UNL     1      -9.253   5.313   8.005  0.00  0.00    +0.000 OA
ATOM     16  C   UNL     1     -10.863   3.571   8.629  0.00  0.00    +0.000 C 
ATOM     17  C   UNL     1     -10.363   4.542   7.551  0.00  0.00    +0.000 C 
ATOM     18  C   UNL     1     -11.543   5.500   7.289  0.00  0.00    +0.000 C 
ATOM     19  C   UNL     1     -12.776   4.663   6.814  0.00  0.00    +0.000 C 
ATOM     20  C   UNL     1     -13.116   3.562   7.825  0.00  0.00    +0.000 C 
BRANCH  20  22
ATOM     21  O   UNL     1     -13.858   2.349   5.962  0.00  0.00    +0.000 OA
ATOM     22  C   UNL     1     -14.153   2.620   7.298  0.00  0.00    +0.000 C 
ENDBRANCH  20  22
ENDBRANCH  11  16
ENDBRANCH   7  11
BRANCH   4  23
ATOM     23  O   UNL     1     -10.403   2.506  14.891  0.00  0.00    +0.000 OA
BRANCH  23  24
ATOM     24  C   UNL     1     -11.061   3.662  15.415  0.00  0.00    +0.000 C 
BRANCH  24  25
ATOM     25  C   UNL     1     -12.240   3.237  16.313  0.00  0.00    +0.000 C 
BRANCH  25  26
ATOM     26  C   UNL     1     -13.495   3.993  15.879  0.00  0.00    +0.000 C 
BRANCH  26  27
ATOM     27  C   UNL     1     -14.017   4.868  17.041  0.00  0.00    +0.000 C 
BRANCH  27  28
ATOM     28  C   UNL     1     -14.256   4.043  18.291  0.00  0.00    +0.000 C 
BRANCH  28  29
ATOM     29  C   UNL     1     -13.344   4.522  19.408  0.00  0.00    +0.000 C 
BRANCH  29  30
ATOM     30  C   UNL     1     -14.030   5.560  20.251  0.00  0.00    +0.000 C 
BRANCH  30  31
ATOM     31  C   UNL     1     -15.453   5.190  20.453  0.00  0.00    +0.000 C 
BRANCH  31  32
ATOM     32  C   UNL     1     -16.270   6.344  20.974  0.00  0.00    +0.000 C 
BRANCH  32  33
ATOM     33  C   UNL     1     -17.138   6.898  19.858  0.00  0.00    +0.000 C 
BRANCH  33  35
ATOM     34  C   UNL     1     -16.115   9.116  19.463  0.00  0.00    +0.000 C 
ATOM     35  C   UNL     1     -16.338   7.731  18.905  0.00  0.00    +0.000 C 
ENDBRANCH  33  35
ENDBRANCH  32  33
ENDBRANCH  31  32
ENDBRANCH  30  31
ENDBRANCH  29  30
ENDBRANCH  28  29
ENDBRANCH  27  28
ENDBRANCH  26  27
ENDBRANCH  25  26
ENDBRANCH  24  25
ENDBRANCH  23  24
ENDBRANCH   4  23
TORSDOF 16
ENDMDL
MODEL 8
REMARK VINA RESULT:      -7.1      2.953     10.483
REMARK  Name = human_CD1d_DDM_pred.rank_0
REMARK  16 active torsions:
REMARK  status: ('A' for Active; 'I' for Inactive)
REMARK    1  A    between atoms: O_2  and  C_23
REMARK    2  A    between atoms: O_2  and  C_24
REMARK    3  A    between atoms: C_3  and  C_5
REMARK    4  A    between atoms: C_5  and  C_7
REMARK    5  A    between atoms: C_7  and  C_9
REMARK    6  A    between atoms: O_8  and  C_27
REMARK    7  A    between atoms: O_8  and  C_30
REMARK    8  A    between atoms: C_9  and  C_11
REMARK    9  A    between atoms: C_11  and  C_13
REMARK   10  A    between atoms: C_13  and  C_15
REMARK   11  A    between atoms: C_15  and  C_17
REMARK   12  A    between atoms: C_17  and  C_19
REMARK   13  A    between atoms: C_19  and  C_21
REMARK   14  A    between atoms: C_21  and  C_23
REMARK   15  A    between atoms: C_28  and  C_29
REMARK   16  A    between atoms: C_34  and  C_35
REMARK                            x       y       z     vdW  Elec       q    Type
REMARK                         _______ _______ _______ _____ _____    ______ ____
ROOT
ATOM      1  O   UNL     1     -11.291   5.510  21.668  0.00  0.00    +0.000 OA
ATOM      2  O   UNL     1      -8.632   8.620  22.359  0.00  0.00    +0.000 OA
ATOM      3  O   UNL     1     -11.284   9.135  21.467  0.00  0.00    +0.000 OA
ATOM      4  C   UNL     1     -11.740   6.786  21.280  0.00  0.00    +0.000 C 
ATOM      5  C   UNL     1     -10.907   7.881  21.973  0.00  0.00    +0.000 C 
ATOM      6  C   UNL     1      -9.399   7.647  21.700  0.00  0.00    +0.000 C 
ATOM      7  C   UNL     1      -9.046   6.238  22.168  0.00  0.00    +0.000 C 
ATOM      8  C   UNL     1      -9.868   5.335  21.238  0.00  0.00    +0.000 C 
ENDROOT
BRANCH   8  10
ATOM      9  O   UNL     1     -10.849   3.237  20.891  0.00  0.00    +0.000 OA
ATOM     10  C   UNL     1      -9.595   3.861  21.327  0.00  0.00    +0.000 C 
ENDBRANCH   8  10
BRANCH   7  11
ATOM     11  O   UNL     1      -7.673   5.933  22.229  0.00  0.00    +0.000 OA
BRANCH  11  16
ATOM     12  O   UNL     1      -6.748   4.117  23.395  0.00  0.00    +0.000 OA
ATOM     13  O   UNL     1      -4.138   4.280  20.801  0.00  0.00    +0.000 OA
ATOM     14  O   UNL     1      -3.659   6.631  22.372  0.00  0.00    +0.000 OA
ATOM     15  O   UNL     1      -5.849   7.661  23.792  0.00  0.00    +0.000 OA
ATOM     16  C   UNL     1      -7.013   5.528  23.460  0.00  0.00    +0.000 C 
ATOM     17  C   UNL     1      -5.672   6.256  23.623  0.00  0.00    +0.000 C 
ATOM     18  C   UNL     1      -4.917   6.019  22.300  0.00  0.00    +0.000 C 
ATOM     19  C   UNL     1      -4.739   4.479  22.090  0.00  0.00    +0.000 C 
ATOM     20  C   UNL     1      -6.090   3.757  22.143  0.00  0.00    +0.000 C 
BRANCH  20  22
ATOM     21  O   UNL     1      -6.791   1.744  23.119  0.00  0.00    +0.000 OA
ATOM     22  C   UNL     1      -5.928   2.269  22.156  0.00  0.00    +0.000 C 
ENDBRANCH  20  22
ENDBRANCH  11  16
ENDBRANCH   7  11
BRANCH   4  23
ATOM     23  O   UNL     1     -13.074   6.915  21.661  0.00  0.00    +0.000 OA
BRANCH  23  24
ATOM     24  C   UNL     1     -13.913   7.257  20.555  0.00  0.00    +0.000 C 
BRANCH  24  25
ATOM     25  C   UNL     1     -15.331   6.692  20.773  0.00  0.00    +0.000 C 
BRANCH  25  26
ATOM     26  C   UNL     1     -15.705   5.812  19.582  0.00  0.00    +0.000 C 
BRANCH  26  27
ATOM     27  C   UNL     1     -14.434   5.405  18.801  0.00  0.00    +0.000 C 
BRANCH  27  28
ATOM     28  C   UNL     1     -14.760   4.437  17.680  0.00  0.00    +0.000 C 
BRANCH  28  29
ATOM     29  C   UNL     1     -13.475   3.932  17.045  0.00  0.00    +0.000 C 
BRANCH  29  30
ATOM     30  C   UNL     1     -13.213   4.628  15.739  0.00  0.00    +0.000 C 
BRANCH  30  31
ATOM     31  C   UNL     1     -12.503   3.713  14.812  0.00  0.00    +0.000 C 
BRANCH  31  32
ATOM     32  C   UNL     1     -13.289   2.456  14.544  0.00  0.00    +0.000 C 
BRANCH  32  33
ATOM     33  C   UNL     1     -12.421   1.242  14.827  0.00  0.00    +0.000 C 
BRANCH  33  35
ATOM     34  C   UNL     1     -13.433  -0.140  16.612  0.00  0.00    +0.000 C 
ATOM     35  C   UNL     1     -13.251   0.032  15.123  0.00  0.00    +0.000 C 
ENDBRANCH  33  35
ENDBRANCH  32  33
ENDBRANCH  31  32
ENDBRANCH  30  31
ENDBRANCH  29  30
ENDBRANCH  28  29
ENDBRANCH  27  28
ENDBRANCH  26  27
ENDBRANCH  25  26
ENDBRANCH  24  25
ENDBRANCH  23  24
ENDBRANCH   4  23
TORSDOF 16
ENDMDL
MODEL 9
REMARK VINA RESULT:      -6.9      1.802      3.530
REMARK  Name = human_CD1d_DDM_pred.rank_0
REMARK  16 active torsions:
REMARK  status: ('A' for Active; 'I' for Inactive)
REMARK    1  A    between atoms: O_2  and  C_23
REMARK    2  A    between atoms: O_2  and  C_24
REMARK    3  A    between atoms: C_3  and  C_5
REMARK    4  A    between atoms: C_5  and  C_7
REMARK    5  A    between atoms: C_7  and  C_9
REMARK    6  A    between atoms: O_8  and  C_27
REMARK    7  A    between atoms: O_8  and  C_30
REMARK    8  A    between atoms: C_9  and  C_11
REMARK    9  A    between atoms: C_11  and  C_13
REMARK   10  A    between atoms: C_13  and  C_15
REMARK   11  A    between atoms: C_15  and  C_17
REMARK   12  A    between atoms: C_17  and  C_19
REMARK   13  A    between atoms: C_19  and  C_21
REMARK   14  A    between atoms: C_21  and  C_23
REMARK   15  A    between atoms: C_28  and  C_29
REMARK   16  A    between atoms: C_34  and  C_35
REMARK                            x       y       z     vdW  Elec       q    Type
REMARK                         _______ _______ _______ _____ _____    ______ ____
ROOT
ATOM      1  O   UNL     1      -8.795   5.860  21.518  0.00  0.00    +0.000 OA
ATOM      2  O   UNL     1     -12.638   4.434  20.869  0.00  0.00    +0.000 OA
ATOM      3  O   UNL     1     -10.399   3.239  19.583  0.00  0.00    +0.000 OA
ATOM      4  C   UNL     1      -8.914   4.878  20.517  0.00  0.00    +0.000 C 
ATOM      5  C   UNL     1     -10.244   4.116  20.669  0.00  0.00    +0.000 C 
ATOM      6  C   UNL     1     -11.426   5.119  20.694  0.00  0.00    +0.000 C 
ATOM      7  C   UNL     1     -11.175   6.118  21.820  0.00  0.00    +0.000 C 
ATOM      8  C   UNL     1      -9.904   6.854  21.370  0.00  0.00    +0.000 C 
ENDROOT
BRANCH   8  10
ATOM      9  O   UNL     1      -8.130   7.729  22.623  0.00  0.00    +0.000 OA
ATOM     10  C   UNL     1      -9.497   8.043  22.191  0.00  0.00    +0.000 C 
ENDBRANCH   8  10
BRANCH   7  11
ATOM     11  O   UNL     1     -12.256   6.954  22.158  0.00  0.00    +0.000 OA
BRANCH  11  16
ATOM     12  O   UNL     1     -13.249   8.066  20.344  0.00  0.00    +0.000 OA
ATOM     13  O   UNL     1     -16.404   7.168  22.019  0.00  0.00    +0.000 OA
ATOM     14  O   UNL     1     -15.289   9.174  23.737  0.00  0.00    +0.000 OA
ATOM     15  O   UNL     1     -12.503   9.498  23.648  0.00  0.00    +0.000 OA
ATOM     16  C   UNL     1     -12.469   8.251  21.537  0.00  0.00    +0.000 C 
ATOM     17  C   UNL     1     -13.249   9.183  22.474  0.00  0.00    +0.000 C 
ATOM     18  C   UNL     1     -14.498   8.382  22.895  0.00  0.00    +0.000 C 
ATOM     19  C   UNL     1     -15.312   8.007  21.613  0.00  0.00    +0.000 C 
ATOM     20  C   UNL     1     -14.435   7.256  20.604  0.00  0.00    +0.000 C 
BRANCH  20  22
ATOM     21  O   UNL     1     -15.224   5.703  19.037  0.00  0.00    +0.000 OA
ATOM     22  C   UNL     1     -15.127   7.072  19.290  0.00  0.00    +0.000 C 
ENDBRANCH  20  22
ENDBRANCH  11  16
ENDBRANCH   7  11
BRANCH   4  23
ATOM     23  O   UNL     1      -7.855   3.984  20.654  0.00  0.00    +0.000 OA
BRANCH  23  24
ATOM     24  C   UNL     1      -7.844   3.362  21.942  0.00  0.00    +0.000 C 
BRANCH  24  25
ATOM     25  C   UNL     1      -6.404   3.310  22.491  0.00  0.00    +0.000 C 
BRANCH  25  26
ATOM     26  C   UNL     1      -5.447   3.849  21.429  0.00  0.00    +0.000 C 
BRANCH  26  27
ATOM     27  C   UNL     1      -4.134   4.329  22.091  0.00  0.00    +0.000 C 
BRANCH  27  28
ATOM     28  C   UNL     1      -4.193   4.191  23.600  0.00  0.00    +0.000 C 
BRANCH  28  29
ATOM     29  C   UNL     1      -3.650   5.450  24.255  0.00  0.00    +0.000 C 
BRANCH  29  30
ATOM     30  C   UNL     1      -2.836   6.252  23.279  0.00  0.00    +0.000 C 
BRANCH  30  31
ATOM     31  C   UNL     1      -2.320   7.478  23.938  0.00  0.00    +0.000 C 
BRANCH  31  32
ATOM     32  C   UNL     1      -1.065   7.209  24.728  0.00  0.00    +0.000 C 
BRANCH  32  33
ATOM     33  C   UNL     1       0.029   6.721  23.796  0.00  0.00    +0.000 C 
BRANCH  33  35
ATOM     34  C   UNL     1      -0.126   4.841  25.397  0.00  0.00    +0.000 C 
ATOM     35  C   UNL     1       0.728   5.519  24.353  0.00  0.00    +0.000 C 
ENDBRANCH  33  35
ENDBRANCH  32  33
ENDBRANCH  31  32
ENDBRANCH  30  31
ENDBRANCH  29  30
ENDBRANCH  28  29
ENDBRANCH  27  28
ENDBRANCH  26  27
ENDBRANCH  25  26
ENDBRANCH  24  25
ENDBRANCH  23  24
ENDBRANCH   4  23
TORSDOF 16
ENDMDL
