9548661
  -OEChem-11092519283D

 67 70  0     1  0  0  0  0  0999 V2000
   -0.1344   -1.8777   -0.9681 O   0  0  0  0  0  0  0  0  0  0  0  0
    5.8363   -1.3530   -2.1751 O   0  0  0  0  0  0  0  0  0  0  0  0
   -7.3287   -0.9270    0.9996 O   0  5  0  0  0  0  0  0  0  0  0  0
   -6.4381    1.1037    0.4497 O   0  0  0  0  0  0  0  0  0  0  0  0
   -0.9868    0.0736    0.2270 C   0  0  1  0  0  0  0  0  0  0  0  0
   -0.0110    1.0307   -0.4983 C   0  0  2  0  0  0  0  0  0  0  0  0
    1.3142    1.2154    0.2520 C   0  0  1  0  0  0  0  0  0  0  0  0
    2.0075   -0.1770    0.4083 C   0  0  1  0  0  0  0  0  0  0  0  0
    3.4025   -0.0620    1.1329 C   0  0  2  0  0  0  0  0  0  0  0  0
   -2.1925    0.1829   -0.7440 C   0  0  2  0  0  0  0  0  0  0  0  0
   -0.3239   -1.3153    0.3307 C   0  0  2  0  0  0  0  0  0  0  0  0
    1.0481   -1.2298    1.0342 C   0  0  0  0  0  0  0  0  0  0  0  0
    4.2985    0.9757    0.3760 C   0  0  2  0  0  0  0  0  0  0  0  0
   -0.8644    2.2619   -0.7952 C   0  0  0  0  0  0  0  0  0  0  0  0
    2.2272    2.2153   -0.4698 C   0  0  0  0  0  0  0  0  0  0  0  0
   -2.2683    1.6929   -1.0684 C   0  0  0  0  0  0  0  0  0  0  0  0
    3.5953    2.3311    0.1951 C   0  0  0  0  0  0  0  0  0  0  0  0
    4.1600   -1.4212    1.1852 C   0  0  0  0  0  0  0  0  0  0  0  0
   -1.3830    0.5509    1.6502 C   0  0  0  0  0  0  0  0  0  0  0  0
   -3.5148   -0.3844   -0.2479 C   0  0  1  0  0  0  0  0  0  0  0  0
    4.7988    0.4496   -0.9861 C   0  0  0  0  0  0  0  0  0  0  0  0
    3.2293    0.3886    2.6069 C   0  0  0  0  0  0  0  0  0  0  0  0
    4.6204   -1.9269   -0.1760 C   0  0  0  0  0  0  0  0  0  0  0  0
    5.5042   -0.8969   -0.8679 C   0  0  1  0  0  0  0  0  0  0  0  0
   -4.6150   -0.1673   -1.3102 C   0  0  0  0  0  0  0  0  0  0  0  0
   -3.3485   -1.8640    0.1149 C   0  0  0  0  0  0  0  0  0  0  0  0
   -5.9860   -0.7364   -0.9492 C   0  0  0  0  0  0  0  0  0  0  0  0
   -6.6469   -0.1335    0.2936 C   0  0  0  0  0  0  0  0  0  0  0  0
    0.2430    0.6001   -1.4809 H   0  0  0  0  0  0  0  0  0  0  0  0
    1.1021    1.6329    1.2414 H   0  0  0  0  0  0  0  0  0  0  0  0
    2.2015   -0.5350   -0.6119 H   0  0  0  0  0  0  0  0  0  0  0  0
   -1.9370   -0.3262   -1.6854 H   0  0  0  0  0  0  0  0  0  0  0  0
   -0.9162   -2.0265    0.9045 H   0  0  0  0  0  0  0  0  0  0  0  0
    1.5169   -2.2182    0.9738 H   0  0  0  0  0  0  0  0  0  0  0  0
    0.8941   -1.0162    2.0961 H   0  0  0  0  0  0  0  0  0  0  0  0
    5.1960    1.1599    0.9844 H   0  0  0  0  0  0  0  0  0  0  0  0
   -0.4884    2.8208   -1.6582 H   0  0  0  0  0  0  0  0  0  0  0  0
   -0.8898    2.9489    0.0581 H   0  0  0  0  0  0  0  0  0  0  0  0
    1.7604    3.2076   -0.4780 H   0  0  0  0  0  0  0  0  0  0  0  0
    2.3473    1.9252   -1.5204 H   0  0  0  0  0  0  0  0  0  0  0  0
   -3.0022    2.2173   -0.4457 H   0  0  0  0  0  0  0  0  0  0  0  0
   -2.5506    1.8505   -2.1155 H   0  0  0  0  0  0  0  0  0  0  0  0
    4.2277    3.0045   -0.3965 H   0  0  0  0  0  0  0  0  0  0  0  0
    3.4770    2.8155    1.1719 H   0  0  0  0  0  0  0  0  0  0  0  0
    3.5558   -2.1920    1.6753 H   0  0  0  0  0  0  0  0  0  0  0  0
    5.0521   -1.3082    1.8176 H   0  0  0  0  0  0  0  0  0  0  0  0
   -1.9252    1.5016    1.6384 H   0  0  0  0  0  0  0  0  0  0  0  0
   -2.0255   -0.1785    2.1533 H   0  0  0  0  0  0  0  0  0  0  0  0
   -0.5178    0.6948    2.3027 H   0  0  0  0  0  0  0  0  0  0  0  0
   -3.8327    0.1465    0.6572 H   0  0  0  0  0  0  0  0  0  0  0  0
    3.9791    0.3618   -1.7088 H   0  0  0  0  0  0  0  0  0  0  0  0
    5.4920    1.1750   -1.4324 H   0  0  0  0  0  0  0  0  0  0  0  0
    2.6632    1.3177    2.7066 H   0  0  0  0  0  0  0  0  0  0  0  0
    2.7181   -0.3745    3.2029 H   0  0  0  0  0  0  0  0  0  0  0  0
    4.2045    0.5578    3.0788 H   0  0  0  0  0  0  0  0  0  0  0  0
    5.1793   -2.8628   -0.0525 H   0  0  0  0  0  0  0  0  0  0  0  0
    3.7635   -2.1836   -0.8100 H   0  0  0  0  0  0  0  0  0  0  0  0
    6.4405   -0.7707   -0.3113 H   0  0  0  0  0  0  0  0  0  0  0  0
    0.2725   -2.7534   -0.8544 H   0  0  0  0  0  0  0  0  0  0  0  0
   -4.7308    0.9027   -1.5181 H   0  0  0  0  0  0  0  0  0  0  0  0
   -4.2977   -0.6286   -2.2548 H   0  0  0  0  0  0  0  0  0  0  0  0
   -4.3105   -2.3641    0.2504 H   0  0  0  0  0  0  0  0  0  0  0  0
   -2.8641   -1.9854    1.0841 H   0  0  0  0  0  0  0  0  0  0  0  0
   -2.8067   -2.4207   -0.6554 H   0  0  0  0  0  0  0  0  0  0  0  0
    6.2889   -2.2085   -2.0806 H   0  0  0  0  0  0  0  0  0  0  0  0
   -6.6691   -0.5247   -1.7830 H   0  0  0  0  0  0  0  0  0  0  0  0
   -5.9589   -1.8276   -0.8712 H   0  0  0  0  0  0  0  0  0  0  0  0
  1 11  1  0  0  0  0
  1 59  1  0  0  0  0
  2 24  1  0  0  0  0
  2 65  1  0  0  0  0
  3 28  1  0  0  0  0
  4 28  2  0  0  0  0
  5  6  1  0  0  0  0
  5 10  1  0  0  0  0
  5 11  1  0  0  0  0
  5 19  1  0  0  0  0
  6  7  1  0  0  0  0
  6 14  1  0  0  0  0
  6 29  1  0  0  0  0
  7  8  1  0  0  0  0
  7 15  1  0  0  0  0
  7 30  1  0  0  0  0
  8  9  1  0  0  0  0
  8 12  1  0  0  0  0
  8 31  1  0  0  0  0
  9 13  1  0  0  0  0
  9 18  1  0  0  0  0
  9 22  1  0  0  0  0
 10 16  1  0  0  0  0
 10 20  1  0  0  0  0
 10 32  1  0  0  0  0
 11 12  1  0  0  0  0
 11 33  1  0  0  0  0
 12 34  1  0  0  0  0
 12 35  1  0  0  0  0
 13 17  1  0  0  0  0
 13 21  1  0  0  0  0
 13 36  1  0  0  0  0
 14 16  1  0  0  0  0
 14 37  1  0  0  0  0
 14 38  1  0  0  0  0
 15 17  1  0  0  0  0
 15 39  1  0  0  0  0
 15 40  1  0  0  0  0
 16 41  1  0  0  0  0
 16 42  1  0  0  0  0
 17 43  1  0  0  0  0
 17 44  1  0  0  0  0
 18 23  1  0  0  0  0
 18 45  1  0  0  0  0
 18 46  1  0  0  0  0
 19 47  1  0  0  0  0
 19 48  1  0  0  0  0
 19 49  1  0  0  0  0
 20 25  1  0  0  0  0
 20 26  1  0  0  0  0
 20 50  1  0  0  0  0
 21 24  1  0  0  0  0
 21 51  1  0  0  0  0
 21 52  1  0  0  0  0
 22 53  1  0  0  0  0
 22 54  1  0  0  0  0
 22 55  1  0  0  0  0
 23 24  1  0  0  0  0
 23 56  1  0  0  0  0
 23 57  1  0  0  0  0
 24 58  1  0  0  0  0
 25 27  1  0  0  0  0
 25 60  1  0  0  0  0
 25 61  1  0  0  0  0
 26 62  1  0  0  0  0
 26 63  1  0  0  0  0
 26 64  1  0  0  0  0
 27 28  1  0  0  0  0
 27 66  1  0  0  0  0
 27 67  1  0  0  0  0
M  CHG  1   3  -1
M  END
> <PUBCHEM_COMPOUND_CID>
9548661

> <PUBCHEM_CONFORMER_RMSD>
0.8

> <PUBCHEM_CONFORMER_DIVERSEORDER>
1
7
4
5
6
3
2

> <PUBCHEM_MMFF94_PARTIAL_CHARGES>
10
1 -0.68
11 0.28
2 -0.68
24 0.28
27 -0.11
28 0.91
3 -0.9
4 -0.9
59 0.4
65 0.4

> <PUBCHEM_EFFECTIVE_ROTOR_COUNT>
6.2

> <PUBCHEM_PHARMACOPHORE_FEATURES>
12
1 1 acceptor
1 1 donor
1 2 acceptor
1 2 donor
1 26 hydrophobe
1 3 acceptor
1 4 acceptor
3 3 4 28 anion
5 5 6 10 14 16 rings
6 5 6 7 8 11 12 rings
6 7 8 9 13 15 17 rings
6 9 13 18 21 23 24 rings

> <PUBCHEM_HEAVY_ATOM_COUNT>
28

> <PUBCHEM_ATOM_DEF_STEREO_COUNT>
10

> <PUBCHEM_ATOM_UDEF_STEREO_COUNT>
0

> <PUBCHEM_BOND_DEF_STEREO_COUNT>
0

> <PUBCHEM_BOND_UDEF_STEREO_COUNT>
0

> <PUBCHEM_ISOTOPIC_ATOM_COUNT>
0

> <PUBCHEM_COMPONENT_COUNT>
1

> <PUBCHEM_CACTVS_TAUTO_COUNT>
1

> <PUBCHEM_CONFORMER_ID>
0091B37500000001

> <PUBCHEM_MMFF94_ENERGY>
97.1804

> <PUBCHEM_FEATURE_SELFOVERLAP>
61.077

> <PUBCHEM_SHAPE_FINGERPRINT>
10366900 7 17748829592165466048
10906281 52 18187657881735705475
11578080 2 17415263207921606610
11796584 16 16558752368472638646
11961588 58 16081096982658378420
11963148 33 18040426707683035419
12166972 35 18272373079017916225
12236239 1 18059856190615082257
12422481 6 18272929419348491311
12778500 126 16630253519548785403
12788726 201 17895746314520970969
13533116 47 17561082514571977370
13782708 43 17632570583114730775
14955137 171 18262244421337520661
15131766 46 15049732080127842712
15142383 8 15339119017925994258
15183329 4 18411132537686167599
15475509 8 18340217301347709557
15840311 113 18343584071284297881
17349148 13 17917713512965863708
18335252 98 14996292413883773809
19319366 153 16950554481045935634
21150785 3 15502381136153706207
21267235 1 18333449824389805050
21279426 13 18334565820677511757
21641784 216 17385724643052356109
21781051 124 17603594031906171090
221357 26 18408322168653951012
23081809 10 17203323455654993597
23522609 53 17897187757048524485
23559900 14 18337951294119760492
23569943 247 17987237733746854655
3004659 81 18272369776234998726
34797466 226 18410013268987524388
350125 39 18409448055470384125
4093350 32 17846501456761220316
4340502 62 15719382954066290600
46194498 28 18413672414057718580
465052 167 18334012787244192787
5104073 3 18262220141133451744
59755656 215 18202285758198077983

> <PUBCHEM_SHAPE_MULTIPOLES>
552.75
15.05
2.16
1.57
17.74
0.54
-0.31
-4.11
1.75
-1.3
0.31
-1.4
-0.23
0.62

> <PUBCHEM_SHAPE_SELFOVERLAP>
1158.662

> <PUBCHEM_SHAPE_VOLUME>
310.1

> <PUBCHEM_COORDINATE_TYPE>
2
5
10

$$$$
