human_CD1d_tritonX_pred.rank_0
  PyMOL3.1          3D                             0

 44 44  0  0  0  0  0  0  0  0999 V2000
    4.4200   -2.9670   21.9200 C   0  0  0  0  0  0  0  0  0  0  0  0
   -0.1230    1.3750   22.0110 O   0  0  0  0  0  0  0  0  0  0  0  0
    4.3630   -1.8440   20.9080 C   0  0  0  0  0  0  0  0  0  0  0  0
   -3.2770    1.5330   23.8930 O   0  0  0  0  0  0  0  0  0  0  0  0
    5.7050   -1.0780   20.8720 C   0  0  0  0  0  0  0  0  0  0  0  0
   -6.7220    2.5120   23.5230 O   0  0  0  0  0  0  0  0  0  0  0  0
    6.0530   -0.5650   22.2590 C   0  0  0  0  0  0  0  0  0  0  0  0
   -8.5980    1.3760   20.6020 O   0  0  0  0  0  0  0  0  0  0  0  0
    5.6330    0.1070   19.9770 C   0  0  0  0  0  0  0  0  0  0  0  0
   -7.7000    0.5700   17.1730 O   0  0  0  0  0  0  0  0  0  0  0  0
    6.8290   -1.9850   20.4400 C   0  0  0  0  0  0  0  0  0  0  0  0
   -7.0830    1.1390   13.6210 O   0  0  0  0  0  0  0  0  0  0  0  0
    4.1140   -2.4220   19.5480 C   0  0  0  0  0  0  0  0  0  0  0  0
   -9.2030    3.6560   12.0560 O   0  0  0  0  0  0  0  0  0  0  0  0
    3.1690   -0.9780   21.2250 C   0  0  0  0  0  0  0  0  0  0  0  0
  -12.1280    3.0860    9.9360 O   0  0  0  0  0  0  0  0  0  0  0  0
    3.2410    0.1800   22.0240 C   0  0  0  0  0  0  0  0  0  0  0  0
  -13.7890    0.6030   11.9560 O   0  0  0  0  0  0  0  0  0  0  0  0
    2.1510    0.9560   22.2740 C   0  0  0  0  0  0  0  0  0  0  0  0
  -11.5060   -1.6770   13.7560 O   0  0  0  0  0  0  0  0  0  0  0  0
    0.9440    0.5520   21.7650 C   0  0  0  0  0  0  0  0  0  0  0  0
   -8.6700   -1.9120   14.8390 O   0  0  0  0  0  0  0  0  0  0  0  0
   -1.2760    0.8580   22.6920 C   0  0  0  0  0  0  0  0  0  0  0  0
   -2.3430    1.9370   22.8740 C   0  0  0  0  0  0  0  0  0  0  0  0
   -4.3590    2.4300   24.1190 C   0  0  0  0  0  0  0  0  0  0  0  0
   -5.4170    2.2470   23.0360 C   0  0  0  0  0  0  0  0  0  0  0  0
   -7.7880    2.4670   22.5990 C   0  0  0  0  0  0  0  0  0  0  0  0
   -7.7890    1.1890   21.7710 C   0  0  0  0  0  0  0  0  0  0  0  0
   -8.2390    0.4720   19.5320 C   0  0  0  0  0  0  0  0  0  0  0  0
   -8.5980    1.0510   18.1820 C   0  0  0  0  0  0  0  0  0  0  0  0
   -7.9000    1.1940   15.9120 C   0  0  0  0  0  0  0  0  0  0  0  0
   -6.7090    0.9920   14.9890 C   0  0  0  0  0  0  0  0  0  0  0  0
   -7.4870    2.4180   13.2460 C   0  0  0  0  0  0  0  0  0  0  0  0
   -8.8300    2.3880   12.5580 C   0  0  0  0  0  0  0  0  0  0  0  0
  -10.5640    3.7750   11.6420 C   0  0  0  0  0  0  0  0  0  0  0  0
  -10.8240    2.9100   10.4350 C   0  0  0  0  0  0  0  0  0  0  0  0
  -13.1510    2.6370   10.7620 C   0  0  0  0  0  0  0  0  0  0  0  0
  -13.2240    1.1270   10.7340 C   0  0  0  0  0  0  0  0  0  0  0  0
  -12.8040    0.2130   12.9160 C   0  0  0  0  0  0  0  0  0  0  0  0
  -12.6050   -1.2850   12.9460 C   0  0  0  0  0  0  0  0  0  0  0  0
  -10.2550   -1.7120   13.0670 C   0  0  0  0  0  0  0  0  0  0  0  0
   -9.2650   -2.6150   13.7770 C   0  0  0  0  0  0  0  0  0  0  0  0
    0.8180   -0.5660   20.9970 C   0  0  0  0  0  0  0  0  0  0  0  0
    1.8970   -1.3430   20.7260 C   0  0  0  0  0  0  0  0  0  0  0  0
  1  3  1  0  0  0  0
  2 23  1  0  0  0  0
  3  5  1  0  0  0  0
  3 13  1  0  0  0  0
  3 15  1  0  0  0  0
  4 25  1  0  0  0  0
  5  7  1  0  0  0  0
  5  9  1  0  0  0  0
  5 11  1  0  0  0  0
  6 27  1  0  0  0  0
  8 29  1  0  0  0  0
 10 31  1  0  0  0  0
 12 33  1  0  0  0  0
 14 35  1  0  0  0  0
 15 17  4  0  0  0  0
 15 44  4  0  0  0  0
 16 37  1  0  0  0  0
 17 19  4  0  0  0  0
 18 39  1  0  0  0  0
 19 21  4  0  0  0  0
 20 41  1  0  0  0  0
  2 21  1  0  0  0  0
 21 43  4  0  0  0  0
 23 24  1  0  0  0  0
  4 24  1  0  0  0  0
 25 26  1  0  0  0  0
  6 26  1  0  0  0  0
 27 28  1  0  0  0  0
  8 28  1  0  0  0  0
 29 30  1  0  0  0  0
 10 30  1  0  0  0  0
 31 32  1  0  0  0  0
 12 32  1  0  0  0  0
 33 34  1  0  0  0  0
 14 34  1  0  0  0  0
 35 36  1  0  0  0  0
 16 36  1  0  0  0  0
 37 38  1  0  0  0  0
 18 38  1  0  0  0  0
 39 40  1  0  0  0  0
 20 40  1  0  0  0  0
 41 42  1  0  0  0  0
 22 42  1  0  0  0  0
 43 44  4  0  0  0  0
M  END
$$$$
